# oxoimido
# Created by GaussView 6.0.16
#

#
#

@<TRIPOS>MOLECULE
Molecule Name
50 53
SMALL
NO_CHARGES


@<TRIPOS>ATOM
1 C1    -2.4649    -2.8696    -1.9309 C
2 H2    -3.1873    -3.1765    -1.1641 H
3 H3    -2.1919    -3.7363    -2.5394 H
4 H4    -2.9747    -2.1364    -2.5693 H
5 C5    -1.2444    -2.2595    -1.2971 C
6 C6     0.0007    -2.7584    -1.6832 C
7 H7     0.0009    -3.5782    -2.3944 H
8 C8     1.2456    -2.2586    -1.2976 C
9 C9     2.4663    -2.8675    -1.9321 C
10 H10     3.1888    -3.1749    -1.1656 H
11 H11     2.9758    -2.1333    -2.5696 H
12 H12     2.1936    -3.7336    -2.5416 H
13 C13     2.7198    -0.7660    -0.1750 C
14 C14     3.4528    -1.1843     0.9338 C
15 C15     4.7141    -0.6480     1.1706 C
16 H16     5.2818    -0.9733     2.0426 H
17 C17     5.2459     0.3071     0.3073 C
18 H18     6.2309     0.7315     0.5005 H
19 C19     4.5074     0.7274    -0.7960 C
20 H20     4.9110     1.4843    -1.4688 H
21 C21     3.2465     0.1926    -1.0391 C
22 C22    -2.7192    -0.7674    -0.1747 C
23 C23    -3.4516    -1.1850     0.9348 C
24 C24    -4.7131    -0.6491     1.1715 C
25 H25    -5.2803    -0.9739     2.0440 H
26 C26    -5.2458     0.3048     0.3075 C
27 H27    -6.2310     0.7288     0.5006 H
28 C28    -4.5078     0.7244    -0.7965 C
29 H29    -4.9121     1.4805    -1.4699 H
30 C30    -3.2468     0.1901    -1.0396 C
31 C31    -0.0011     2.6124     0.0237 C
32 C32    -1.2123     3.2761    -0.2297 C
33 C33    -1.2038     4.5687    -0.7386 C
34 H34    -2.1521     5.0729    -0.9298 H
35 C35    -0.0022     5.2249    -0.9990 C
36 H36    -0.0026     6.2404    -1.3946 H
37 C37     1.1999     4.5700    -0.7379 C
38 H38     2.1478     5.0751    -0.9284 H
39 C39     1.2095     3.2773    -0.2289 C
40 N40    -1.3990    -1.2808    -0.4047 N
41 N41     1.3998    -1.2800    -0.4050 N
42 N42    -0.0006     1.3317     0.5112 N
43 O43     0.0009    -1.0402     2.3953 O
44 Re44     0.0003    -0.3948     0.8135 Re
45 H45    -2.6479     0.5314    -1.8833 H
46 H46    -3.0120    -1.9090     1.6200 H
47 H47     3.0139    -1.9093     1.6184 H
48 H48     2.6471     0.5344    -1.8823 H
49 H49     2.1448     2.7619    -0.0139 H
50 H50    -2.1472     2.7597    -0.0153 H
@<TRIPOS>BOND
1 1 2 1
2 1 3 1
3 1 4 1
4 1 5 1
5 5 6 Ar
6 5 40 Ar
7 6 7 1
8 6 8 Ar
9 8 9 1
10 8 41 Ar
11 9 10 1
12 9 11 1
13 9 12 1
14 13 14 Ar
15 13 21 Ar
16 13 41 1
17 14 15 Ar
18 14 47 1
19 15 16 1
20 15 17 Ar
21 17 18 1
22 17 19 Ar
23 19 20 1
24 19 21 Ar
25 21 48 1
26 22 23 Ar
27 22 30 Ar
28 22 40 1
29 23 24 Ar
30 23 46 1
31 24 25 1
32 24 26 Ar
33 26 27 1
34 26 28 Ar
35 28 29 1
36 28 30 Ar
37 30 45 1
38 31 32 Ar
39 31 39 Ar
40 31 42 Ar
41 32 33 Ar
42 32 50 1
43 33 34 1
44 33 35 Ar
45 35 36 1
46 35 37 Ar
47 37 38 1
48 37 39 Ar
49 39 49 1
50 40 44 1
51 41 44 1
52 42 44 1
53 43 44 1
