@<TRIPOS>MOLECULE
Molecule Name
    53    57     1     0     0
SMALL
NO_CHARGES
****
Generated from the CSD

@<TRIPOS>ATOM
     1 Re1      0.0000  -0.3208  -0.4257   Re        1 1      0.0000
     2 O2      -1.0718  -1.2035  -1.8609   O.co2     1 1      0.0000
     3 O3       0.0002  -2.2059  -3.6047   O.co2     1 1      0.0000
     4 O4       1.0720  -1.2035  -1.8607   O.co2     1 1      0.0000
     5 N5       1.4343  -0.8608   0.9214   N.2       1 1      0.0000
     6 N6      -1.4344  -0.8610   0.9212   N.2       1 1      0.0000
     7 C7      -4.7370  -1.7056  -0.5828   C.2       1 1      0.0000
     8 H8      -5.2505  -2.5714  -1.0006   H         1 1      0.0000
     9 C9       0.0012   4.9901  -1.1049   C.2       1 1      0.0000
    10 H10      0.0022   5.6601  -1.9649   H         1 1      0.0000
    11 C11      1.2551  -1.1929   2.2017   C.2       1 1      0.0000
    12 C12      0.0000   2.7524  -0.2076   C.2       1 1      0.0000
    13 C13      3.3992   0.5090   0.4414   C.2       1 1      0.0000
    14 C14      3.4454  -1.8466  -0.0865   C.2       1 1      0.0000
    15 C15      2.7805  -0.7392   0.4314   C.2       1 1      0.0000
    16 C16      0.0000   5.5130   0.1868   C.2       1 1      0.0000
    17 H17      0.0000   6.5920   0.3399   H         1 1      0.0000
    18 C18     -2.7805  -0.7393   0.4311   C.2       1 1      0.0000
    19 C19     -2.4627  -1.4447   3.0630   C.3       1 1      0.0000
    20 H20     -2.1665  -1.6797   4.0888   H         1 1      0.0000
    21 H21     -3.1223  -0.5676   3.0679   H         1 1      0.0000
    22 H22     -3.0540  -2.2775   2.6615   H         1 1      0.0000
    23 C23     -5.3652  -0.4633  -0.5622   C.2       1 1      0.0000
    24 H24     -6.3753  -0.3553  -0.9572   H         1 1      0.0000
    25 C25     -3.3995   0.5088   0.4418   C.2       1 1      0.0000
    26 N26      0.0000   1.3873  -0.3939   N.3       1 1      0.0000
    27 C27      0.0012   3.6159  -1.3091   C.2       1 1      0.0000
    28 C28      5.3653  -0.4634  -0.5617   C.2       1 1      0.0000
    29 H29      6.3754  -0.3554  -0.9566   H         1 1      0.0000
    30 C30     -1.2553  -1.1930   2.2016   C.2       1 1      0.0000
    31 C31     -0.0012   3.2757   1.0925   C.2       1 1      0.0000
    32 C32      2.4624  -1.4445   3.0633   C.3       1 1      0.0000
    33 H33      2.1662  -1.6780   4.0894   H         1 1      0.0000
    34 H34      3.0528  -2.2784   2.6627   H         1 1      0.0000
    35 H35      3.1229  -0.5681   3.0669   H         1 1      0.0000
    36 C36      4.7373  -1.7057  -0.5817   C.2       1 1      0.0000
    37 H37      5.2510  -2.5717  -0.9989   H         1 1      0.0000
    38 C38     -0.0012   4.6518   1.2823   C.2       1 1      0.0000
    39 H39     -0.0022   5.0557   2.2950   H         1 1      0.0000
    40 C40     -3.4452  -1.8465  -0.0875   C.2       1 1      0.0000
    41 C41     -4.6924   0.6440  -0.0521   C.2       1 1      0.0000
    42 H42     -5.1730   1.6223  -0.0446   H         1 1      0.0000
    43 C43     -0.0001  -1.3294   2.8004   C.2       1 1      0.0000
    44 H44     -0.0002  -1.6038   3.8505   H         1 1      0.0000
    45 C45      4.6922   0.6442  -0.0523   C.2       1 1      0.0000
    46 H46      5.1726   1.6225  -0.0453   H         1 1      0.0000
    47 C47      0.0001  -1.5990  -2.5782   C.2       1 1      0.0000
    48 H48     -2.9333  -2.8064  -0.1276   H         1 1      0.0000
    49 H49      2.9337  -2.8066  -0.1261   H         1 1      0.0000
    50 H50      2.8537   1.3718   0.8235   H         1 1      0.0000
    51 H51      0.0022   3.1911  -2.3118   H         1 1      0.0000
    52 H52     -0.0022   2.5880   1.9376   H         1 1      0.0000
    53 H53     -2.8542   1.3715   0.8243   H         1 1      0.0000
@<TRIPOS>BOND
     1     1     2    1
     2     1     4    1
     3     1     5    1
     4     1     6    1
     5     1    26    1
     6     2    47    1
     7     3    47    2
     8     4    47    1
     9     5    11   un
    10     5    15    1
    11     6    18    1
    12     6    30   un
    13     7     8    1
    14     7    23   un
    15     7    40   un
    16     9    10    1
    17     9    16   un
    18     9    27   un
    19    11    32    1
    20    11    43   un
    21    12    26   un
    22    12    27   un
    23    12    31   un
    24    13    15   un
    25    13    45   un
    26    13    50    1
    27    14    15   un
    28    14    36   un
    29    14    49    1
    30    16    17    1
    31    16    38   un
    32    18    25   un
    33    18    40   un
    34    19    20    1
    35    19    21    1
    36    19    22    1
    37    19    30    1
    38    23    24    1
    39    23    41   un
    40    25    41   un
    41    25    53    1
    42    27    51    1
    43    28    29    1
    44    28    36   un
    45    28    45   un
    46    30    43   un
    47    31    38   un
    48    31    52    1
    49    32    33    1
    50    32    34    1
    51    32    35    1
    52    36    37    1
    53    38    39    1
    54    40    48    1
    55    41    42    1
    56    43    44    1
    57    45    46    1
@<TRIPOS>SUBSTRUCTURE
     1 RES1        1 GROUP             0 ****  ****    0  
