# oxoimidocarbonyl opt_f
# Created by GaussView 6.0.16
#

#
#

@<TRIPOS>MOLECULE
Molecule Name
52 54
SMALL
NO_CHARGES


@<TRIPOS>ATOM
1 C1    -1.6451     1.9184     0.6048 C
2 C2    -1.7303     2.6322     1.8139 C
3 C3    -2.7983     3.4859     2.0518 C
4 H4    -2.8502     4.0338     2.9934 H
5 C5    -3.8037     3.6439     1.0981 C
6 H6    -4.6433     4.3116     1.2912 H
7 C7    -3.7285     2.9394    -0.1025 C
8 H8    -4.5127     3.0524    -0.8517 H
9 C9    -2.6619     2.0885    -0.3538 C
10 C10     3.1290     0.0537     0.3345 C
11 C11     4.0379    -0.1297    -0.7069 C
12 C12     5.1497     0.6997    -0.8123 C
13 H13     5.8529     0.5570    -1.6330 H
14 C14     5.3599     1.7138     0.1190 C
15 H15     6.2275     2.3672     0.0304 H
16 C16     4.4482     1.8981     1.1555 C
17 H17     4.6001     2.6973     1.8812 H
18 C18     3.3346     1.0711     1.2647 C
19 C19     3.3498    -2.2676     1.7448 C
20 H20     4.1263    -2.3596     0.9749 H
21 H21     3.2777    -3.2121     2.2903 H
22 H22     3.6815    -1.4820     2.4356 H
23 C23     2.0224    -1.9093     1.1261 C
24 C24     0.9791    -2.7957     1.3333 C
25 H25     1.2220    -3.6811     1.9126 H
26 C26    -0.3748    -2.6874     0.9256 C
27 C27    -1.3127    -3.7734     1.3854 C
28 H28    -1.8860    -3.4359     2.2595 H
29 H29    -0.7535    -4.6695     1.6714 H
30 H30    -2.0361    -4.0273     0.6022 H
31 C31    -2.2163    -1.5636    -0.0747 C
32 C32    -2.7022    -1.7709    -1.3662 C
33 C33    -4.0503    -1.5570    -1.6370 C
34 H34    -4.4259    -1.7179    -2.6477 H
35 C35    -4.9137    -1.1306    -0.6306 C
36 H36    -5.9662    -0.9529    -0.8510 H
37 C37    -4.4227    -0.9155     0.6545 C
38 H38    -5.0861    -0.5597     1.4425 H
39 C39    -3.0783    -1.1305     0.9335 C
40 C40     1.2141     1.5192    -1.4391 C
41 N41    -0.6035     1.0601     0.3906 N
42 N42     1.9530    -0.7620     0.4179 N
43 N43    -0.8236    -1.7015     0.1939 N
44 O44     0.2594    -0.8574    -2.1806 O
45 Re45     0.3243    -0.0998    -0.6214 Re
46 H46    -2.0065    -2.0709    -2.1476 H
47 H47    -2.6760    -0.9276     1.9248 H
48 H48    -0.9429     2.4948     2.5542 H
49 H49    -2.6067     1.5211    -1.2826 H
50 H50     3.8498    -0.9124    -1.4415 H
51 H51     2.6008     1.2179     2.0566 H
52 O52     1.6705     2.4659    -1.8705 O
@<TRIPOS>BOND
1 1 2 Ar
2 1 9 Ar
3 1 41 Ar
4 2 3 Ar
5 2 48 1
6 3 4 1
7 3 5 Ar
8 5 6 1
9 5 7 Ar
10 7 8 1
11 7 9 Ar
12 9 49 1
13 10 11 Ar
14 10 18 Ar
15 10 42 1
16 11 12 Ar
17 11 50 1
18 12 13 1
19 12 14 Ar
20 14 15 1
21 14 16 Ar
22 16 17 1
23 16 18 Ar
24 18 51 1
25 19 20 1
26 19 21 1
27 19 22 1
28 19 23 1
29 23 24 2
30 23 42 Ar
31 24 25 1
32 24 26 Ar
33 26 27 1
34 26 43 2
35 27 28 1
36 27 29 1
37 27 30 1
38 31 32 Ar
39 31 39 Ar
40 31 43 1
41 32 33 Ar
42 32 46 1
43 33 34 1
44 33 35 Ar
45 35 36 1
46 35 37 Ar
47 37 38 1
48 37 39 Ar
49 39 47 1
50 40 45 1
51 40 52 3
52 41 45 1
53 42 45 1
54 44 45 1
