# oxoimidoisocyanide opt_f-42f
# Created by GaussView 6.0.16
#

#
#

@<TRIPOS>MOLECULE
Molecule Name
63 66
SMALL
NO_CHARGES


@<TRIPOS>ATOM
1 C1    -1.2869     2.0943     0.9866 C
2 C2    -1.2020     2.5661     2.3105 C
3 C3    -1.6936     3.8202     2.6459 C
4 H4    -1.6189     4.1689     3.6769 H
5 C5    -2.2848     4.6323     1.6781 C
6 H6    -2.6746     5.6140     1.9469 H
7 C7    -2.3763     4.1736     0.3645 C
8 H8    -2.8421     4.7972    -0.3994 H
9 C9    -1.8824     2.9246     0.0164 C
10 C10     1.8610    -1.9150     0.7027 C
11 C11     2.7450    -2.4106    -0.2555 C
12 C12     4.1157    -2.2321    -0.0982 C
13 H13     4.7992    -2.6116    -0.8582 H
14 C14     4.6146    -1.5590     1.0143 C
15 H15     5.6871    -1.4017     1.1250 H
16 C16     3.7314    -1.0677     1.9722 C
17 H17     4.1123    -0.5300     2.8407 H
18 C18     2.3599    -1.2459     1.8196 C
19 C19     0.6396    -4.1857     1.5975 C
20 H20     1.3897    -4.5721     0.8958 H
21 H21     0.0088    -5.0135     1.9318 H
22 H22     1.1894    -3.7866     2.4596 H
23 C23    -0.1948    -3.1083     0.9512 C
24 C24    -1.5577    -3.3384     0.8708 C
25 H25    -1.8981    -4.2899     1.2679 H
26 C26    -2.5794    -2.4833     0.3794 C
27 C27    -3.9983    -2.9730     0.5195 C
28 H28    -4.4734    -2.5146     1.3976 H
29 H29    -4.0202    -4.0593     0.6500 H
30 H30    -4.5990    -2.6969    -0.3546 H
31 C31    -3.4006    -0.4397    -0.5120 C
32 C32    -3.6807    -0.1828    -1.8549 C
33 C33    -4.6658     0.7413    -2.1886 C
34 H34    -4.8799     0.9407    -3.2389 H
35 C35    -5.3669     1.4174    -1.1926 C
36 H36    -6.1286     2.1499    -1.4597 H
37 C37    -5.0768     1.1666     0.1459 C
38 H38    -5.6029     1.7085     0.9317 H
39 C39    -4.0974     0.2413     0.4871 C
40 C40     1.3627     0.5101    -0.8210 C
41 C41     3.7063     1.4787    -0.8237 C
42 C42     4.0694     2.3525     0.2024 C
43 C43     5.3885     2.7782     0.2924 C
44 H44     5.6790     3.4574     1.0939 H
45 C45     6.3351     2.3437    -0.6329 C
46 H46     7.3683     2.6818    -0.5569 H
47 C47     5.9576     1.4782    -1.6573 C
48 H48     6.6947     1.1376    -2.3846 H
49 C49     4.6430     1.0416    -1.7609 C
50 N50    -0.8151     0.8545     0.6698 N
51 N51     0.4460    -2.0098     0.5017 N
52 N52    -2.3385    -1.3199    -0.1618 N
53 N53     2.4069     1.0271    -0.8972 N
54 O54    -0.5489    -0.8099    -2.1936 O
55 Re55    -0.4107    -0.4457    -0.5053 Re
56 H56    -3.0967    -0.6924    -2.6190 H
57 H57    -3.8344     0.0669     1.5293 H
58 H58    -0.7472     1.9208     3.0616 H
59 H59    -1.9670     2.5550    -1.0054 H
60 H60     2.3415    -2.9055    -1.1386 H
61 H61     1.6558    -0.8371     2.5437 H
62 H62     4.3306     0.3594    -2.5493 H
63 H63     3.3152     2.6788     0.9166 H
@<TRIPOS>BOND
1 1 2 Ar
2 1 9 Ar
3 1 50 Ar
4 2 3 Ar
5 2 58 1
6 3 4 1
7 3 5 Ar
8 5 6 1
9 5 7 Ar
10 7 8 1
11 7 9 Ar
12 9 59 1
13 10 11 Ar
14 10 18 Ar
15 10 51 1
16 11 12 Ar
17 11 60 1
18 12 13 1
19 12 14 Ar
20 14 15 1
21 14 16 Ar
22 16 17 1
23 16 18 Ar
24 18 61 1
25 19 20 1
26 19 21 1
27 19 22 1
28 19 23 1
29 23 24 2
30 23 51 Ar
31 24 25 1
32 24 26 Ar
33 26 27 1
34 26 52 2
35 27 28 1
36 27 29 1
37 27 30 1
38 31 32 Ar
39 31 39 Ar
40 31 52 1
41 32 33 Ar
42 32 56 1
43 33 34 1
44 33 35 Ar
45 35 36 1
46 35 37 Ar
47 37 38 1
48 37 39 Ar
49 39 57 1
50 40 53 3
51 40 55 1
52 41 42 Ar
53 41 49 Ar
54 41 53 Ar
55 42 43 Ar
56 42 63 1
57 43 44 1
58 43 45 Ar
59 45 46 1
60 45 47 Ar
61 47 48 1
62 47 49 Ar
63 49 62 1
64 50 55 1
65 51 55 1
66 54 55 1
