# imidocarbonyl-ts1-opt_f
# Created by GaussView 6.0.16
#

#
#

@<TRIPOS>MOLECULE
Molecule Name
54 55
SMALL
NO_CHARGES


@<TRIPOS>ATOM
1 C1    -1.4201     0.5729     1.7685 C
2 C2     1.4195     0.6157     1.7524 C
3 C3    -1.2380    -2.2027    -1.5540 C
4 C4     0.0270    -2.6120    -1.9922 C
5 H5     0.0335    -3.3555    -2.7825 H
6 C6     1.2844    -2.1823    -1.5525 C
7 N7    -0.0119     1.2191    -0.4049 N
8 N8     1.4846    -1.2905    -0.5942 N
9 N9    -1.4534    -1.3158    -0.5948 N
10 O10     0.0167    -1.5593     1.8361 O
11 Re11     0.0074    -0.3172     0.5715 Re
12 O12     2.1674     1.1513     2.4095 O
13 O13    -2.1758     1.0755     2.4424 O
14 C14     2.4828    -2.7951    -2.2334 C
15 H15     3.0891    -2.0229    -2.7238 H
16 H16     3.1327    -3.2899    -1.5004 H
17 H17     2.1714    -3.5274    -2.9828 H
18 C18    -2.4256    -2.8328    -2.2381 C
19 H19    -2.1015    -3.5573    -2.9898 H
20 H20    -3.0678    -3.3409    -1.5074 H
21 H21    -3.0440    -2.0689    -2.7262 H
22 C22     2.8275    -0.9353    -0.2646 C
23 C23     3.4566     0.1130    -0.9362 C
24 C24     3.4885    -1.5924     0.7735 C
25 C25     4.7409     0.5024    -0.5693 C
26 H26     2.9203     0.6209    -1.7366 H
27 C27     4.7728    -1.1986     1.1359 C
28 H28     2.9697    -2.3894     1.3050 H
29 C29     5.4027    -0.1518     0.4671 C
30 H30     5.2267     1.3256    -1.0939 H
31 H31     5.2818    -1.7092     1.9536 H
32 H32     6.4061     0.1588     0.7579 H
33 C33    -2.8019    -0.9803    -0.2679 C
34 C34    -3.4579    -1.6516     0.7642 C
35 C35    -3.4422     0.0634    -0.9362 C
36 C36    -4.7485    -1.2766     1.1241 C
37 H37    -2.9307    -2.4447     1.2932 H
38 C38    -4.7328     0.4341    -0.5716 C
39 H39    -2.9096     0.5831    -1.7315 H
40 C40    -5.3896    -0.2343     0.4588 C
41 H41    -5.2537    -1.7983     1.9373 H
42 H42    -5.2275     1.2535    -1.0937 H
43 H43    -6.3980     0.0615     0.7477 H
44 C44    -0.0361     2.5550    -0.6915 C
45 C45     1.1603     3.2714    -0.8835 C
46 C46    -1.2577     3.2457    -0.8029 C
47 C47     1.1292     4.6280    -1.1773 C
48 H48     2.1080     2.7422    -0.7892 H
49 C49    -1.2748     4.6024    -1.0978 C
50 H50    -2.1860     2.6971    -0.6472 H
51 C51    -0.0852     5.3027    -1.2896 C
52 H52     2.0666     5.1669    -1.3196 H
53 H53    -2.2309     5.1211    -1.1774 H
54 H54    -0.1042     6.3674    -1.5213 H
@<TRIPOS>BOND
1 1 11 1
2 1 13 3
3 2 11 1
4 2 12 3
5 3 4 Ar
6 3 9 Ar
7 3 18 1
8 4 5 1
9 4 6 Ar
10 6 8 Ar
11 6 14 1
12 7 11 1
13 7 44 Ar
14 8 22 1
15 9 33 1
16 10 11 1
17 14 15 1
18 14 16 1
19 14 17 1
20 18 19 1
21 18 20 1
22 18 21 1
23 22 23 Ar
24 22 24 Ar
25 23 25 Ar
26 23 26 1
27 24 27 Ar
28 24 28 1
29 25 29 Ar
30 25 30 1
31 27 29 Ar
32 27 31 1
33 29 32 1
34 33 34 Ar
35 33 35 Ar
36 34 36 Ar
37 34 37 1
38 35 38 Ar
39 35 39 1
40 36 40 Ar
41 36 41 1
42 38 40 Ar
43 38 42 1
44 40 43 1
45 44 45 Ar
46 44 46 Ar
47 45 47 Ar
48 45 48 1
49 46 49 Ar
50 46 50 1
51 47 51 Ar
52 47 52 1
53 49 51 Ar
54 49 53 1
55 51 54 1
