# imidoisocyanate-ts1-opt_f
# Created by GaussView 6.0.16
#

#
#

@<TRIPOS>MOLECULE
Molecule Name
76 79
SMALL
NO_CHARGES


@<TRIPOS>ATOM
1 C1     1.4578     0.4768    -0.9861 C
2 C2    -1.4552     0.4706    -0.9858 C
3 C3     1.2755    -3.5500     0.5431 C
4 C4     0.0119    -4.1370     0.7006 C
5 H5     0.0143    -5.1694     1.0358 H
6 C6    -1.2547    -3.5550     0.5457 C
7 N7     0.0018     0.0055     1.0966 N
8 N8    -1.4734    -2.3205     0.1288 N
9 N9     1.4886    -2.3137     0.1275 N
10 O10     0.0017    -1.4632    -2.1701 O
11 Re11     0.0046    -0.9059    -0.5065 Re
12 C12     2.4656    -4.4104     0.8939 C
13 H13     3.1278    -4.5272     0.0265 H
14 H14     3.0625    -3.9411     1.6865 H
15 H15     2.1461    -5.4002     1.2308 H
16 C16    -2.4407    -4.4189     0.9013 C
17 H17    -2.1174    -5.4093     1.2328 H
18 H18    -3.0323    -3.9531     1.7001 H
19 H19    -3.1094    -4.5334     0.0386 H
20 C20    -2.8087    -1.8273     0.0991 C
21 C21    -3.3120    -1.1235     1.1947 C
22 C22    -3.5869    -1.9598    -1.0516 C
23 C23    -4.5820    -0.5583     1.1377 C
24 H24    -2.6789    -0.9984     2.0721 H
25 C25    -4.8570    -1.3937    -1.1024 C
26 H26    -3.1660    -2.4802    -1.9112 H
27 C27    -5.3599    -0.6914    -0.0097 C
28 H28    -4.9615     0.0013     1.9928 H
29 H29    -5.4553    -1.4944    -2.0085 H
30 H30    -6.3475    -0.2334    -0.0587 H
31 C31     2.8220    -1.8155     0.0953 C
32 C32     3.5992    -1.9459    -1.0563 C
33 C33     3.3243    -1.1091     1.1897 C
34 C34     4.8672    -1.3751    -1.1092 C
35 H35     3.1792    -2.4683    -1.9150 H
36 C36     4.5921    -0.5393     1.1307 C
37 H37     2.6919    -0.9856     2.0679 H
38 C38     5.3690    -0.6703    -0.0176 C
39 H39     5.4646    -1.4742    -2.0161 H
40 H40     4.9708     0.0223     1.9849 H
41 H41     6.3549    -0.2087    -0.0683 H
42 C42    -0.0113     1.0855     1.9176 C
43 C43    -0.0270     0.9203     3.3199 C
44 C44    -0.0103     2.4072     1.4154 C
45 C45    -0.0420     2.0178     4.1686 C
46 H46    -0.0275    -0.0950     3.7155 H
47 C47    -0.0250     3.4990     2.2750 C
48 H48     0.0015     2.5592     0.3373 H
49 C49    -0.0413     3.3163     3.6566 C
50 H50    -0.0544     1.8600     5.2480 H
51 H51    -0.0240     4.5077     1.8588 H
52 H52    -0.0530     4.1749     4.3277 H
53 C53    -3.3622     2.1410    -1.0226 C
54 C54    -4.2392     2.2638    -2.0990 C
55 C55    -3.5459     2.8764     0.1497 C
56 C56    -5.3207     3.1296    -1.9923 C
57 H57    -4.0701     1.6715    -2.9964 H
58 C58    -4.6319     3.7374     0.2389 C
59 H59    -2.8403     2.7562     0.9705 H
60 C60    -5.5207     3.8658    -0.8266 C
61 H61    -6.0143     3.2284    -2.8272 H
62 H62    -4.7854     4.3121     1.1521 H
63 H63    -6.3717     4.5420    -0.7485 H
64 C64     3.3588     2.1540    -1.0102 C
65 C65     3.5354     2.8804     0.1690 C
66 C66     4.2396     2.2888    -2.0818 C
67 C67     4.6180     3.7442     0.2698 C
68 H68     2.8271     2.7507     0.9862 H
69 C69     5.3177     3.1573    -1.9636 C
70 H70     4.0762     1.7033    -2.9848 H
71 C71     5.5106     3.8844    -0.7912 C
72 H72     4.7660     4.3118     1.1883 H
73 H73     6.0143     3.2653    -2.7949 H
74 H74     6.3590     4.5628    -0.7040 H
75 N75     2.2987     1.2747    -1.0980 N
76 N76    -2.2989     1.2649    -1.0997 N
@<TRIPOS>BOND
1 1 11 1
2 1 75 3
3 2 11 1
4 2 76 3
5 3 4 Ar
6 3 9 2
7 3 12 1
8 4 5 1
9 4 6 Ar
10 6 8 2
11 6 16 1
12 7 11 1
13 7 42 Ar
14 8 20 1
15 9 31 1
16 10 11 1
17 12 13 1
18 12 14 1
19 12 15 1
20 16 17 1
21 16 18 1
22 16 19 1
23 20 21 Ar
24 20 22 Ar
25 21 23 Ar
26 21 24 1
27 22 25 Ar
28 22 26 1
29 23 27 Ar
30 23 28 1
31 25 27 Ar
32 25 29 1
33 27 30 1
34 31 32 Ar
35 31 33 Ar
36 32 34 Ar
37 32 35 1
38 33 36 Ar
39 33 37 1
40 34 38 Ar
41 34 39 1
42 36 38 Ar
43 36 40 1
44 38 41 1
45 42 43 Ar
46 42 44 Ar
47 43 45 Ar
48 43 46 1
49 44 47 Ar
50 44 48 1
51 45 49 Ar
52 45 50 1
53 47 49 Ar
54 47 51 1
55 49 52 1
56 53 54 Ar
57 53 55 Ar
58 53 76 Ar
59 54 56 Ar
60 54 57 1
61 55 58 Ar
62 55 59 1
63 56 60 Ar
64 56 61 1
65 58 60 Ar
66 58 62 1
67 60 63 1
68 64 65 Ar
69 64 66 Ar
70 64 75 Ar
71 65 67 Ar
72 65 68 1
73 66 69 Ar
74 66 70 1
75 67 71 Ar
76 67 72 1
77 69 71 Ar
78 69 73 1
79 71 74 1
