# imidocarbonyl-ts2-opt_ts
# Created by GaussView 6.0.16
#

#
#

@<TRIPOS>MOLECULE
Molecule Name
54 55
SMALL
NO_CHARGES


@<TRIPOS>ATOM
1 C1     0.9701    -0.2546    -2.0621 C
2 C2    -1.3289     1.1960    -1.5246 C
3 C3     0.6116    -2.2845     1.6315 C
4 C4    -0.7021    -2.3641     2.1266 C
5 H5    -0.8499    -3.0521     2.9527 H
6 C6    -1.8466    -1.7145     1.6673 C
7 N7     0.4103     1.2648     0.4506 N
8 N8    -1.8637    -0.8163     0.6825 N
9 N9     0.9880    -1.5191     0.6236 N
10 O10    -0.4395    -1.3134    -1.8870 O
11 Re11    -0.2101    -0.1316    -0.4477 Re
12 O12    -1.9191     1.9606    -2.1145 O
13 O13     1.6329    -0.3043    -3.0078 O
14 C14    -3.1229    -0.2677     0.2869 C
15 C15    -3.6085     0.8883     0.8988 C
16 C16    -3.8332    -0.8478    -0.7643 C
17 C17    -4.8013     1.4571     0.4641 C
18 H18    -3.0310     1.3430     1.7033 H
19 C19    -5.0248    -0.2733    -1.1959 C
20 H20    -3.4221    -1.7306    -1.2525 H
21 C21    -5.5141     0.8774    -0.5828 C
22 H22    -5.1728     2.3639     0.9420 H
23 H23    -5.5711    -0.7253    -2.0241 H
24 H24    -6.4443     1.3285    -0.9274 H
25 C25     2.3583    -1.5532     0.2150 C
26 C26     3.2564    -0.6108     0.7149 C
27 C27     2.7824    -2.4896    -0.7261 C
28 C28     4.5758    -0.6093     0.2749 C
29 H29     2.9077     0.1252     1.4374 H
30 C30     4.1031    -2.4829    -1.1626 C
31 H31     2.0592    -3.1953    -1.1324 H
32 C32     5.0035    -1.5457    -0.6631 C
33 H33     5.2721     0.1331     0.6651 H
34 H34     4.4267    -3.2086    -1.9088 H
35 H35     6.0358    -1.5383    -1.0126 H
36 C36     1.1421     2.4036     0.6651 C
37 C37     0.8674     3.2118     1.7797 C
38 C38     2.1827     2.7623    -0.2088 C
39 C39     1.6149     4.3595     2.0073 C
40 H40     0.0622     2.9190     2.4523 H
41 C41     2.9269     3.9082     0.0342 C
42 H42     2.3963     2.1223    -1.0640 H
43 C43     2.6465     4.7120     1.1385 C
44 H44     1.3931     4.9845     2.8727 H
45 H45     3.7342     4.1783    -0.6468 H
46 H46     3.2327     5.6122     1.3223 H
47 C47    -3.1471    -2.0699     2.3422 C
48 H48    -3.6145    -1.1804     2.7833 H
49 H49    -3.8610    -2.4716     1.6116 H
50 H50    -2.9875    -2.8137     3.1272 H
51 C51     1.6405    -3.1512     2.3133 C
52 H52     2.0543    -3.8841     1.6090 H
53 H53     2.4833    -2.5456     2.6693 H
54 H54     1.2006    -3.6848     3.1599 H
@<TRIPOS>BOND
1 1 11 1
2 1 13 3
3 2 11 1
4 2 12 3
5 3 4 Ar
6 3 9 2
7 3 51 1
8 4 5 1
9 4 6 Ar
10 6 8 Ar
11 6 47 1
12 7 11 1
13 7 36 Ar
14 8 14 1
15 9 25 1
16 10 11 1
17 14 15 Ar
18 14 16 Ar
19 15 17 Ar
20 15 18 1
21 16 19 Ar
22 16 20 1
23 17 21 Ar
24 17 22 1
25 19 21 Ar
26 19 23 1
27 21 24 1
28 25 26 Ar
29 25 27 Ar
30 26 28 Ar
31 26 29 1
32 27 30 Ar
33 27 31 1
34 28 32 Ar
35 28 33 1
36 30 32 Ar
37 30 34 1
38 32 35 1
39 36 37 Ar
40 36 38 Ar
41 37 39 Ar
42 37 40 1
43 38 41 Ar
44 38 42 1
45 39 43 Ar
46 39 44 1
47 41 43 Ar
48 41 45 1
49 43 46 1
50 47 48 1
51 47 49 1
52 47 50 1
53 51 52 1
54 51 53 1
55 51 54 1
