@<TRIPOS>MOLECULE
Molecule Name
    76    79     2     0     0
SMALL
NO_CHARGES
****
Generated from the CSD

@<TRIPOS>ATOM
     1 C1       1.2655   1.0007   0.3512   C.2       1 1      0.0000
     2 C2      -1.5217   0.6051   0.4361   C.1       1 1      0.0000
     3 N7      -0.0182  -1.5037   1.2027   N.3       1 1      0.0000
     4 O10      0.5078   1.0022  -1.2987   O.3       1 1      0.0000
     5 Re11     0.0739  -0.4892  -0.2440   Re        1 1      0.0000
     6 C34      0.1782  -1.8230   2.5208   C.2       1 1      0.0000
     7 C35     -0.4312  -2.9636   3.0671   C.2       1 1      0.0000
     8 C36      1.0012  -1.0260   3.3363   C.2       1 1      0.0000
     9 C37     -0.2270  -3.2937   4.4007   C.2       1 1      0.0000
    10 H38     -1.0599  -3.5777   2.4232   H         1 1      0.0000
    11 C39      1.2016  -1.3702   4.6660   C.2       1 1      0.0000
    12 H40      1.4770  -0.1476   2.9014   H         1 1      0.0000
    13 C41      0.5893  -2.5008   5.2058   C.2       1 1      0.0000
    14 H42     -0.7060  -4.1809   4.8160   H         1 1      0.0000
    15 H43      1.8431  -0.7472   5.2899   H         1 1      0.0000
    16 H44      0.7500  -2.7646   6.2511   H         1 1      0.0000
    17 N53      2.0180   1.8657   0.7333   N.2       1 1      0.0000
    18 C54      2.6582   2.9759   0.1796   C.2       1 1      0.0000
    19 C55      3.5810   3.6645   0.9683   C.2       1 1      0.0000
    20 C56      2.4141   3.3851  -1.1359   C.2       1 1      0.0000
    21 C57      4.2661   4.7548   0.4438   C.2       1 1      0.0000
    22 H58      3.7554   3.3219   1.9872   H         1 1      0.0000
    23 C59      3.1057   4.4757  -1.6493   C.2       1 1      0.0000
    24 H60      1.6902   2.8240  -1.7244   H         1 1      0.0000
    25 C61      4.0320   5.1636  -0.8669   C.2       1 1      0.0000
    26 H62      4.9897   5.2871   1.0620   H         1 1      0.0000
    27 H63      2.9198   4.7926  -2.6763   H         1 1      0.0000
    28 H64      4.5705   6.0174  -1.2789   H         1 1      0.0000
    29 C65     -3.6595   1.8462   1.0083   C.2       1 1      0.0000
    30 C66     -3.9718   3.0006   0.2903   C.2       1 1      0.0000
    31 C67     -4.5445   1.3182   1.9478   C.2       1 1      0.0000
    32 C68     -5.1931   3.6232   0.5135   C.2       1 1      0.0000
    33 H69     -3.2594   3.3850  -0.4373   H         1 1      0.0000
    34 C70     -5.7615   1.9538   2.1596   C.2       1 1      0.0000
    35 H71     -4.2712   0.4159   2.4919   H         1 1      0.0000
    36 C72     -6.0897   3.1035   1.4447   C.2       1 1      0.0000
    37 H73     -5.4463   4.5235  -0.0462   H         1 1      0.0000
    38 H74     -6.4601   1.5459   2.8901   H         1 1      0.0000
    39 H75     -7.0463   3.5969   1.6149   H         1 1      0.0000
    40 N76     -2.4618   1.2062   0.7675   N.1       1 1      0.0000
    41 C3       1.7128  -2.5429  -1.9216   C.2       1 1      0.0000
    42 C4       0.5407  -3.0267  -2.5370   C.2       1 1      0.0000
    43 H5       0.6798  -3.8651  -3.2123   H         1 1      0.0000
    44 C6      -0.7536  -2.5137  -2.4680   C.2       1 1      0.0000
    45 N8      -1.1303  -1.5069  -1.6810   N.2       1 1      0.0000
    46 N9       1.7491  -1.5437  -1.0654   N.2       1 1      0.0000
    47 C12     -2.4763  -1.0427  -1.7599   C.2       1 1      0.0000
    48 C13     -3.4712  -1.6183  -0.9676   C.2       1 1      0.0000
    49 C14     -2.7871   0.0566  -2.5614   C.2       1 1      0.0000
    50 C15     -4.7614  -1.0983  -0.9765   C.2       1 1      0.0000
    51 H16     -3.2103  -2.4579  -0.3239   H         1 1      0.0000
    52 C17     -4.0792   0.5740  -2.5657   C.2       1 1      0.0000
    53 H18     -1.9922   0.5179  -3.1461   H         1 1      0.0000
    54 C19     -5.0712   0.0001  -1.7749   C.2       1 1      0.0000
    55 H20     -5.5288  -1.5479  -0.3457   H         1 1      0.0000
    56 H21     -4.3096   1.4405  -3.1862   H         1 1      0.0000
    57 H22     -6.0775   0.4180  -1.7664   H         1 1      0.0000
    58 C23      3.0149  -1.0800  -0.5973   C.2       1 1      0.0000
    59 C24      3.5176  -1.5218   0.6259   C.2       1 1      0.0000
    60 C25      3.7046  -0.1097  -1.3229   C.2       1 1      0.0000
    61 C26      4.7038  -0.9902   1.1197   C.2       1 1      0.0000
    62 H27      2.9557  -2.2609   1.1952   H         1 1      0.0000
    63 C28      4.8876   0.4227  -0.8216   C.2       1 1      0.0000
    64 H29      3.2744   0.2536  -2.2546   H         1 1      0.0000
    65 C30      5.3912  -0.0156   0.3997   C.2       1 1      0.0000
    66 H31      5.0874  -1.3326   2.0811   H         1 1      0.0000
    67 H32      5.4050   1.2034  -1.3792   H         1 1      0.0000
    68 H33      6.3114   0.4121   0.7973   H         1 1      0.0000
    69 C45     -1.7854  -3.1517  -3.3653   C.3       1 1      0.0000
    70 H46     -2.6130  -3.5671  -2.7763   H         1 1      0.0000
    71 H47     -2.2228  -2.4039  -4.0397   H         1 1      0.0000
    72 H48     -1.3408  -3.9511  -3.9641   H         1 1      0.0000
    73 C49      3.0037  -3.2245  -2.3036   C.3       1 1      0.0000
    74 H50      3.6655  -2.5248  -2.8303   H         1 1      0.0000
    75 H51      3.5455  -3.5581  -1.4098   H         1 1      0.0000
    76 H52      2.8146  -4.0848  -2.9514   H         1 1      0.0000
@<TRIPOS>BOND
     1     1     5    1
     2     1    17    2
     3     2     5    1
     4     2    40    3
     5     3     5    1
     6     3     6   un
     7     4     5    1
     8     6     7   un
     9     6     8   un
    10     7     9   un
    11     7    10    1
    12     8    11   un
    13     8    12    1
    14     9    13   un
    15     9    14    1
    16    11    13   un
    17    11    15    1
    18    13    16    1
    19    17    18    1
    20    18    19   un
    21    18    20   un
    22    19    21   un
    23    19    22    1
    24    20    23   un
    25    20    24    1
    26    21    25   un
    27    21    26    1
    28    23    25   un
    29    23    27    1
    30    25    28    1
    31    29    30   un
    32    29    31   un
    33    29    40   un
    34    30    32   un
    35    30    33    1
    36    31    34   un
    37    31    35    1
    38    32    36   un
    39    32    37    1
    40    34    36   un
    41    34    38    1
    42    36    39    1
    43    41    42   un
    44    41    46    2
    45    41    73    1
    46    42    43    1
    47    42    44   un
    48    44    45   un
    49    44    69    1
    50    45    47    1
    51    46    58    1
    52    47    48   un
    53    47    49   un
    54    48    50   un
    55    48    51    1
    56    49    52   un
    57    49    53    1
    58    50    54   un
    59    50    55    1
    60    52    54   un
    61    52    56    1
    62    54    57    1
    63    58    59   un
    64    58    60   un
    65    59    61   un
    66    59    62    1
    67    60    63   un
    68    60    64    1
    69    61    65   un
    70    61    66    1
    71    63    65   un
    72    63    67    1
    73    65    68    1
    74    69    70    1
    75    69    71    1
    76    69    72    1
    77    73    74    1
    78    73    75    1
    79    73    76    1
@<TRIPOS>SUBSTRUCTURE
     1 RES1        1 GROUP             0 ****  ****    0  
     2 RES2       41 GROUP             0 ****  ****    0  
