# imidocarbonyl opt_f
# Created by GaussView 6.0.16
#

#
#

@<TRIPOS>MOLECULE
Molecule Name
54 55
SMALL
NO_CHARGES


@<TRIPOS>ATOM
1 C1    -0.0926    -0.8388    -2.3052 C
2 C2    -1.3350     1.4833    -1.3862 C
3 C3     1.9069     1.9785     0.3768 C
4 C4     3.0054     2.0400    -0.4945 C
5 C5     4.0950     2.8337    -0.1691 C
6 H6     4.9539     2.8734    -0.8387 H
7 C7     4.0927     3.5771     1.0107 C
8 H8     4.9510     4.2008     1.2614 H
9 C9     2.9981     3.5235     1.8740 C
10 H10     3.0006     4.1061     2.7953 H
11 C11     1.9069     2.7245     1.5648 C
12 C12     2.1563    -1.5394     0.2010 C
13 C13     2.7849    -1.8216    -1.0102 C
14 C14     4.1632    -1.6617    -1.1262 C
15 H15     4.6455    -1.8814    -2.0787 H
16 C16     4.9194    -1.2187    -0.0446 C
17 H17     5.9968    -1.0876    -0.1453 H
18 C18     4.2888    -0.9314     1.1631 C
19 H19     4.8675    -0.5682     2.0125 H
20 C20     2.9134    -1.0904     1.2850 C
21 C21     1.1415    -3.8036     1.3995 C
22 H22     1.7585    -4.1020     0.5434 H
23 H23     0.5531    -4.6614     1.7377 H
24 H24     1.8293    -3.5161     2.2055 H
25 C25     0.2377    -2.6538     1.0326 C
26 C26    -1.0955    -2.7330     1.4645 C
27 H27    -1.3624    -3.6357     2.0047 H
28 C28    -2.1017    -1.7739     1.3511 C
29 C29    -3.4115    -2.0835     2.0318 C
30 H30    -3.6981    -1.2723     2.7131 H
31 H31    -3.3428    -3.0162     2.5978 H
32 H32    -4.2182    -2.1767     1.2936 H
33 C33    -3.1451     0.2092     0.5735 C
34 C34    -4.0561    -0.0187    -0.4592 C
35 C35    -5.1544     0.8211    -0.6118 C
36 H36    -5.8571     0.6446    -1.4263 H
37 C37    -5.3522     1.8871     0.2626 C
38 H38    -6.2106     2.5467     0.1368 H
39 C39    -4.4405     2.1138     1.2905 C
40 H40    -4.5849     2.9509     1.9740 H
41 C41    -3.3384     1.2788     1.4464 C
42 N42     0.8628     1.1493     0.0730 N
43 N43    -1.9862    -0.6211     0.6906 N
44 N44     0.7345    -1.6354     0.3504 N
45 O45    -1.2134    -1.3072    -1.8782 O
46 Re46    -0.3378     0.0058    -0.4599 Re
47 H47    -2.6105     1.4538     2.2381 H
48 H48    -3.8714    -0.8406    -1.1500 H
49 H49     2.1930    -2.1396    -1.8652 H
50 H50     2.4059    -0.8441     2.2171 H
51 H51     2.9841     1.4372    -1.4012 H
52 H52     1.0450     2.6578     2.2274 H
53 O53    -1.8501     2.3462    -1.9185 O
54 O54     0.5768    -0.9928    -3.2889 O
@<TRIPOS>BOND
1 1 45 Ar
2 1 46 1
3 1 54 2
4 2 46 1
5 2 53 3
6 3 4 Ar
7 3 11 Ar
8 3 42 Ar
9 4 5 Ar
10 4 51 1
11 5 6 1
12 5 7 Ar
13 7 8 1
14 7 9 Ar
15 9 10 1
16 9 11 Ar
17 11 52 1
18 12 13 Ar
19 12 20 Ar
20 12 44 1
21 13 14 Ar
22 13 49 1
23 14 15 1
24 14 16 Ar
25 16 17 1
26 16 18 Ar
27 18 19 1
28 18 20 Ar
29 20 50 1
30 21 22 1
31 21 23 1
32 21 24 1
33 21 25 1
34 25 26 Ar
35 25 44 2
36 26 27 1
37 26 28 Ar
38 28 29 1
39 28 43 Ar
40 29 30 1
41 29 31 1
42 29 32 1
43 33 34 Ar
44 33 41 Ar
45 33 43 1
46 34 35 Ar
47 34 48 1
48 35 36 1
49 35 37 Ar
50 37 38 1
51 37 39 Ar
52 39 40 1
53 39 41 Ar
54 41 47 1
55 42 46 1
