# imidoisocyanate
# Created by GaussView 6.0.16
#

#
#

@<TRIPOS>MOLECULE
Molecule Name
76 79
SMALL
NO_CHARGES


@<TRIPOS>ATOM
1 C1     0.2750     1.0026    -0.4874 C
2 C2    -1.4745    -0.3806     0.8642 C
3 C3     0.2237     3.2828    -1.0253 C
4 C4     0.9263     4.4809    -0.8303 C
5 C5     0.6359     5.6112    -1.5831 C
6 H6     1.2006     6.5299    -1.4169 H
7 C7    -0.3745     5.5779    -2.5432 C
8 H8    -0.6066     6.4654    -3.1323 H
9 C9    -1.0831     4.3957    -2.7402 C
10 H10    -1.8766     4.3558    -3.4881 H
11 C11    -0.7906     3.2552    -1.9979 C
12 C12    -3.5000     1.0461     1.2648 C
13 C13    -4.7783     0.6774     1.6787 C
14 C14    -5.7608     1.6553     1.7801 C
15 H15    -6.7644     1.3800     2.1038 H
16 C16    -5.4667     2.9801     1.4648 C
17 H17    -6.2422     3.7420     1.5427 H
18 C18    -4.1851     3.3338     1.0456 C
19 H19    -3.9540     4.3679     0.7918 H
20 C20    -3.1899     2.3710     0.9447 C
21 C21     1.6600    -0.5727     2.8475 C
22 C22     1.9494     0.7922     3.0117 C
23 C23     2.5528     1.2238     4.1843 C
24 H24     2.7802     2.2819     4.3144 H
25 C25     2.8684     0.3121     5.1921 C
26 H26     3.3420     0.6583     6.1109 H
27 C27     2.5806    -1.0421     5.0263 C
28 H28     2.8285    -1.7531     5.8146 H
29 C29     1.9789    -1.4899     3.8571 C
30 C30     2.9739    -0.0774    -1.0304 C
31 C31     2.9274     0.8802    -2.0426 C
32 C32     3.7420     2.0044    -1.9731 C
33 H33     3.6791     2.7623    -2.7537 H
34 C34     4.6106     2.1755    -0.8989 C
35 H35     5.2405     3.0631    -0.8402 H
36 C36     4.6594     1.2152     0.1083 C
37 H37     5.3305     1.3453     0.9575 H
38 C38     3.8430     0.0911     0.0457 C
39 C39     3.7681    -2.3220    -2.4006 C
40 H40     3.8577    -1.5538    -3.1796 H
41 H41     3.9426    -3.3022    -2.8529 H
42 H42     4.5547    -2.1164    -1.6641 H
43 C43     2.4047    -2.2619    -1.7602 C
44 C44     1.5553    -3.3603    -1.9702 C
45 H45     1.9799    -4.1902    -2.5263 H
46 C46     0.1914    -3.4515    -1.6787 C
47 C47    -0.5461    -4.6525    -2.2146 C
48 H48    -1.0194    -5.2170    -1.4013 H
49 H49     0.1321    -5.3152    -2.7589 H
50 H50    -1.3516    -4.3362    -2.8903 H
51 C51    -1.9139    -2.6297    -0.9385 C
52 C52    -2.6802    -1.8797    -1.8310 C
53 C53    -4.0675    -1.8774    -1.7244 C
54 H54    -4.6584    -1.2756    -2.4150 H
55 C55    -4.6989    -2.6280    -0.7358 C
56 H56    -5.7856    -2.6196    -0.6512 H
57 C57    -3.9325    -3.3802     0.1518 C
58 H58    -4.4177    -3.9662     0.9331 H
59 C59    -2.5451    -3.3797     0.0540 C
60 N60     0.5647     2.2053    -0.1985 N
61 N61    -2.5110     0.0845     1.1355 N
62 N62     1.0809    -0.9833     1.6719 N
63 N63    -0.4896    -2.5382    -0.9935 N
64 N64     2.0734    -1.1896    -1.0598 N
65 O65    -0.3565     0.3825    -1.4432 O
66 Re66     0.3331    -0.9094     0.1067 Re
67 H67    -1.3398     2.3325    -2.1675 H
68 H68     1.7088     4.4915    -0.0726 H
69 H69    -4.9850    -0.3676     1.9038 H
70 H70    -2.1812     2.6237     0.6171 H
71 H71    -1.9359    -3.9382     0.7640 H
72 H72    -2.1699    -1.2674    -2.5724 H
73 H73     2.2136     0.7551    -2.8553 H
74 H74     3.8581    -0.6533     0.8399 H
75 H75     1.6950     1.4788     2.2014 H
76 H76     1.7477    -2.5434     3.7051 H
@<TRIPOS>BOND
1 1 60 2
2 1 65 Ar
3 1 66 1
4 2 61 3
5 2 66 1
6 3 4 Ar
7 3 11 Ar
8 3 60 1
9 4 5 Ar
10 4 68 1
11 5 6 1
12 5 7 Ar
13 7 8 1
14 7 9 Ar
15 9 10 1
16 9 11 Ar
17 11 67 1
18 12 13 Ar
19 12 20 Ar
20 12 61 1
21 13 14 Ar
22 13 69 1
23 14 15 1
24 14 16 Ar
25 16 17 1
26 16 18 Ar
27 18 19 1
28 18 20 Ar
29 20 70 1
30 21 22 Ar
31 21 29 Ar
32 21 62 Ar
33 22 23 Ar
34 22 75 1
35 23 24 1
36 23 25 Ar
37 25 26 1
38 25 27 Ar
39 27 28 1
40 27 29 Ar
41 29 76 1
42 30 31 Ar
43 30 38 Ar
44 30 64 1
45 31 32 Ar
46 31 73 1
47 32 33 1
48 32 34 Ar
49 34 35 1
50 34 36 Ar
51 36 37 1
52 36 38 Ar
53 38 74 1
54 39 40 1
55 39 41 1
56 39 42 1
57 39 43 1
58 43 44 Ar
59 43 64 2
60 44 45 1
61 44 46 Ar
62 46 47 1
63 46 63 Ar
64 47 48 1
65 47 49 1
66 47 50 1
67 51 52 Ar
68 51 59 Ar
69 51 63 1
70 52 53 Ar
71 52 72 1
72 53 54 1
73 53 55 Ar
74 55 56 1
75 55 57 Ar
76 57 58 1
77 57 59 Ar
78 59 71 1
79 62 66 1
