@<TRIPOS>MOLECULE
Molecule Name
    56    57     2     0     0
SMALL
NO_CHARGES
****
Generated from the CSD

@<TRIPOS>ATOM
     1 C1       0.1122  -1.3030  -2.0637   C.2       1 1      0.0000
     2 C2      -1.3642   1.0191  -1.5838   C.1       1 1      0.0000
     3 C3       0.9138   2.4296   0.7616   C.2       1 1      0.0000
     4 C4       1.1251   3.3595  -0.2728   C.2       1 1      0.0000
     5 C5       1.8848   4.5000  -0.0405   C.2       1 1      0.0000
     6 H6       2.0305   5.2177  -0.8482   H         1 1      0.0000
     7 C7       2.4647   4.7248   1.2048   C.2       1 1      0.0000
     8 H8       3.0686   5.6153   1.3768   H         1 1      0.0000
     9 C9       2.2574   3.8058   2.2343   C.2       1 1      0.0000
    10 H10      2.6991   3.9788   3.2162   H         1 1      0.0000
    11 C11      1.4748   2.6798   2.0284   C.2       1 1      0.0000
    12 C12      2.3030  -1.5188   0.3619   C.2       1 1      0.0000
    13 C13      2.8803  -2.3056  -0.6330   C.2       1 1      0.0000
    14 C14      4.2370  -2.1797  -0.9123   C.2       1 1      0.0000
    15 H15      4.6786  -2.7853  -1.7033   H         1 1      0.0000
    16 C16      5.0222  -1.2734  -0.2046   C.2       1 1      0.0000
    17 H17      6.0818  -1.1694  -0.4375   H         1 1      0.0000
    18 C18      4.4445  -0.4894   0.7910   C.2       1 1      0.0000
    19 H19      5.0480   0.2309   1.3431   H         1 1      0.0000
    20 C20      3.0891  -0.6117   1.0744   C.2       1 1      0.0000
    21 C21      1.4662  -3.4176   2.1579   C.3       1 1      0.0000
    22 H22      1.9279  -4.0369   1.3784   H         1 1      0.0000
    23 H23      0.9779  -4.0697   2.8870   H         1 1      0.0000
    24 H24      2.2812  -2.8748   2.6537   H         1 1      0.0000
    25 C25      0.4781  -2.4562   1.5514   C.2       1 1      0.0000
    26 C26     -0.8446  -2.5307   2.0020   C.2       1 1      0.0000
    27 H27     -1.0474  -3.2899   2.7502   H         1 1      0.0000
    28 C28     -1.9369  -1.7445   1.6251   C.2       1 1      0.0000
    29 C29     -3.2472  -2.0370   2.3122   C.3       1 1      0.0000
    30 H30     -3.1157  -2.8008   3.0829   H         1 1      0.0000
    31 H31     -3.9919  -2.3903   1.5879   H         1 1      0.0000
    32 H32     -3.6577  -1.1301   2.7731   H         1 1      0.0000
    33 C33     -3.1326  -0.1113   0.3878   C.2       1 1      0.0000
    34 C34     -3.9671  -0.6476  -0.5921   C.2       1 1      0.0000
    35 C35     -5.1312   0.0257  -0.9487   C.2       1 1      0.0000
    36 H36     -5.7775  -0.3898  -1.7220   H         1 1      0.0000
    37 C37     -5.4654   1.2283  -0.3308   C.2       1 1      0.0000
    38 H38     -6.3751   1.7558  -0.6171   H         1 1      0.0000
    39 C39     -4.6264   1.7613   0.6451   C.2       1 1      0.0000
    40 H40     -4.8778   2.7072   1.1252   H         1 1      0.0000
    41 C41     -3.4596   1.0950   1.0050   C.2       1 1      0.0000
    42 N42      0.1959   1.2913   0.5580   N.3       1 1      0.0000
    43 N43     -1.9067  -0.7734   0.7183   N.2       1 1      0.0000
    44 N44      0.8995  -1.5889   0.6421   N.2       1 1      0.0000
    45 O45     -1.0276  -1.7115  -1.6720   O.co2     1 1      0.0000
    46 H46     -2.7800   1.5096   1.7485   H         1 1      0.0000
    47 H47     -3.6732  -1.5733  -1.0847   H         1 1      0.0000
    48 H48      2.2566  -2.9860  -1.2082   H         1 1      0.0000
    49 H49      2.6227   0.0096   1.8368   H         1 1      0.0000
    50 H50      0.6694   3.1869  -1.2463   H         1 1      0.0000
    51 H51      1.2848   1.9709   2.8333   H         1 1      0.0000
    52 O52     -1.9362   1.7189  -2.2709   O.2       1 1      0.0000
    53 O53      0.8630  -1.5506  -2.9703   O.co2     1 1      0.0000
    54 Re54    -0.2689  -0.1596  -0.3577   Re        1 1      0.0000
    55 C55      2.0535   0.7522  -1.6976   C.1       1 1      0.0000
    56 O56      3.0164   0.8244  -2.2746   O.2       1 1      0.0000
@<TRIPOS>BOND
     1     1    45    2
     2     1    53    2
     3     1    54    1
     4     2    52    3
     5     2    54    1
     6     3     4   un
     7     3    11   un
     8     3    42   un
     9     4     5   un
    10     4    50    1
    11     5     6    1
    12     5     7   un
    13     7     8    1
    14     7     9   un
    15     9    10    1
    16     9    11   un
    17    11    51    1
    18    12    13   un
    19    12    20   un
    20    12    44    1
    21    13    14   un
    22    13    48    1
    23    14    15    1
    24    14    16   un
    25    16    17    1
    26    16    18   un
    27    18    19    1
    28    18    20   un
    29    20    49    1
    30    21    22    1
    31    21    23    1
    32    21    24    1
    33    21    25    1
    34    25    26   un
    35    25    44   un
    36    26    27    1
    37    26    28   un
    38    28    29    1
    39    28    43   un
    40    29    30    1
    41    29    31    1
    42    29    32    1
    43    33    34   un
    44    33    41   un
    45    33    43    1
    46    34    35   un
    47    34    47    1
    48    35    36    1
    49    35    37   un
    50    37    38    1
    51    37    39   un
    52    39    40    1
    53    39    41   un
    54    41    46    1
    55    42    54    1
    56    43    54    1
    57    55    56    3
@<TRIPOS>SUBSTRUCTURE
     1 RES1        1 GROUP             0 ****  ****    0  
     2 RES2       55 GROUP             0 ****  ****    0  
