# imidocarbonyl opt_f-CO-added-fixedbl-f
# Created by GaussView 6.0.16
#

#
#

@<TRIPOS>MOLECULE
Molecule Name
56 58
SMALL
NO_CHARGES


@<TRIPOS>ATOM
1 C1     0.3420    -1.3838    -2.0914 C
2 C2    -1.4359     0.7066    -1.7031 C
3 C3     0.3186     2.5300     0.6963 C
4 C4     0.3283     3.4316    -0.3837 C
5 C5     0.8310     4.7161    -0.2208 C
6 H6     0.8188     5.4054    -1.0655 H
7 C7     1.3565     5.1225     1.0029 C
8 H8     1.7610     6.1274     1.1203 H
9 C9     1.3483     4.2365     2.0802 C
10 H10     1.7473     4.5487     3.0459 H
11 C11     0.8104     2.9657     1.9426 C
12 C12     2.5896    -1.1729     0.4244 C
13 C13     3.3283    -1.8287    -0.5590 C
14 C14     4.6596    -1.4836    -0.7696 C
15 H15     5.2276    -1.9908    -1.5493 H
16 C16     5.2594    -0.4884    -0.0028 C
17 H17     6.2996    -0.2150    -0.1783 H
18 C18     4.5201     0.1663     0.9793 C
19 H19     4.9782     0.9547     1.5765 H
20 C20     3.1890    -0.1742     1.1931 C
21 C21     1.9708    -3.2417     2.0923 C
22 H22     2.5427    -3.7546     1.3089 H
23 H23     1.5641    -3.9873     2.7804 H
24 H24     2.6805    -2.6058     2.6368 H
25 C25     0.8652    -2.4131     1.4884 C
26 C26    -0.4301    -2.6999     1.9033 C
27 H27    -0.5263    -3.5185     2.6091 H
28 C28    -1.6311    -2.0340     1.5813 C
29 C29    -2.8753    -2.5120     2.2876 C
30 H30    -3.3887    -1.6752     2.7775 H
31 H31    -2.6326    -3.2703     3.0367 H
32 H32    -3.5840    -2.9420     1.5683 H
33 C33    -2.9958    -0.4482     0.4846 C
34 C34    -3.8545    -1.0133    -0.4598 C
35 C35    -5.0688    -0.3996    -0.7484 C
36 H36    -5.7324    -0.8412    -1.4921 H
37 C37    -5.4317     0.7783    -0.0994 C
38 H38    -6.3806     1.2612    -0.3320 H
39 C39    -4.5720     1.3410     0.8405 C
40 H40    -4.8465     2.2667     1.3468 H
41 C41    -3.3557     0.7322     1.1349 C
42 N42    -0.1672     1.2534     0.6058 N
43 N43    -1.7207    -1.0395     0.7278 N
44 N44     1.1980    -1.4570     0.6153 N
45 O45    -0.6251    -1.9964    -1.5647 O
46 H46    -2.6623     1.1705     1.8498 H
47 H47    -3.5445    -1.9204    -0.9775 H
48 H48     2.8468    -2.5848    -1.1762 H
49 H49     2.5928     0.3457     1.9418 H
50 H50    -0.0810     3.1243    -1.3447 H
51 H51     0.7685     2.2765     2.7851 H
52 O52    -2.1388     1.2806    -2.3810 O
53 O53     1.0616    -1.5170    -3.0424 O
54 Re54    -0.1192    -0.2362    -0.4638 Re
55 C55     1.4068     0.6793    -1.3859 C
56 O56     2.2630     1.1784    -1.9340 O
@<TRIPOS>BOND
1 1 45 2
2 1 53 2
3 1 54 1
4 2 52 3
5 2 54 1
6 3 4 Ar
7 3 11 Ar
8 3 42 Ar
9 4 5 Ar
10 4 50 1
11 5 6 1
12 5 7 Ar
13 7 8 1
14 7 9 Ar
15 9 10 1
16 9 11 Ar
17 11 51 1
18 12 13 Ar
19 12 20 Ar
20 12 44 1
21 13 14 Ar
22 13 48 1
23 14 15 1
24 14 16 Ar
25 16 17 1
26 16 18 Ar
27 18 19 1
28 18 20 Ar
29 20 49 1
30 21 22 1
31 21 23 1
32 21 24 1
33 21 25 1
34 25 26 Ar
35 25 44 Ar
36 26 27 1
37 26 28 Ar
38 28 29 1
39 28 43 2
40 29 30 1
41 29 31 1
42 29 32 1
43 33 34 Ar
44 33 41 Ar
45 33 43 1
46 34 35 Ar
47 34 47 1
48 35 36 1
49 35 37 Ar
50 37 38 1
51 37 39 Ar
52 39 40 1
53 39 41 Ar
54 41 46 1
55 42 54 1
56 44 54 1
57 54 55 1
58 55 56 3
