# imidodicarbonyl
# Created by GaussView 6.0.16
#

#
#

@<TRIPOS>MOLECULE
Molecule Name
53 54
SMALL
NO_CHARGES


@<TRIPOS>ATOM
1 C1     0.1982    -0.1402    -1.9321 C
2 C2    -1.0195     1.6546    -0.7650 C
3 C3     1.8018     2.3198     0.7205 C
4 C4     2.5566     2.6655    -0.4132 C
5 C5     3.2786     3.8507    -0.4361 C
6 H6     3.8611     4.1105    -1.3207 H
7 C7     3.2607     4.7079     0.6637 C
8 H8     3.8279     5.6385     0.6411 H
9 C9     2.5180     4.3684     1.7939 C
10 H10     2.5032     5.0355     2.6565 H
11 C11     1.8009     3.1798     1.8302 C
12 C12     1.9907    -2.0762    -0.0821 C
13 C13     3.1284    -1.5027     0.4842 C
14 C14     4.3770    -1.7391    -0.0801 C
15 H15     5.2631    -1.2866     0.3653 H
16 C16     4.4957    -2.5381    -1.2153 C
17 H17     5.4746    -2.7141    -1.6610 H
18 C18     3.3567    -3.0990    -1.7862 C
19 H19     3.4397    -3.7144    -2.6822 H
20 C20     2.1056    -2.8691    -1.2223 C
21 C21     1.0096    -3.8507     1.7867 C
22 H22     1.2272    -4.5125     0.9381 H
23 H23     0.4842    -4.4264     2.5540 H
24 H24     1.9767    -3.5174     2.1836 H
25 C25     0.1807    -2.6748     1.3397 C
26 C26    -1.1211    -2.5752     1.8418 C
27 H27    -1.4093    -3.3284     2.5683 H
28 C28    -2.1464    -1.7295     1.3950 C
29 C29    -3.5301    -2.0087     1.9282 C
30 H30    -3.9186    -1.1456     2.4830 H
31 H31    -3.5207    -2.8781     2.5911 H
32 H32    -4.2323    -2.1966     1.1057 H
33 C33    -3.1467    -0.0961     0.0119 C
34 C34    -3.6770    -0.4801    -1.2190 C
35 C35    -4.7882     0.1784    -1.7336 C
36 H36    -5.1934    -0.1233    -2.6997 H
37 C37    -5.3766     1.2238    -1.0253 C
38 H38    -6.2419     1.7445    -1.4347 H
39 C39    -4.8425     1.6100     0.2004 C
40 H40    -5.2877     2.4361     0.7552 H
41 C41    -3.7309     0.9536     0.7193 C
42 N42     1.1000     1.1355     0.7605 N
43 N43     0.7021    -1.8066     0.4813 N
44 N44    -1.9760    -0.7497     0.5108 N
45 O45     0.4454    -0.1671    -3.0641 O
46 O46    -1.5391     2.5535    -1.2430 O
47 Re47    -0.0785     0.0670    -0.0628 Re
48 H48     2.5614     1.9816    -1.2614 H
49 H49     1.2221     2.8942     2.7081 H
50 H50    -3.2926     1.2643     1.6673 H
51 H51    -3.1948    -1.2846    -1.7730 H
52 H52     1.2055    -3.2887    -1.6706 H
53 H53     3.0163    -0.8533     1.3509 H
@<TRIPOS>BOND
1 1 45 2
2 1 47 1
3 2 46 3
4 2 47 1
5 3 4 Ar
6 3 11 Ar
7 3 42 Ar
8 4 5 Ar
9 4 48 1
10 5 6 1
11 5 7 Ar
12 7 8 1
13 7 9 Ar
14 9 10 1
15 9 11 Ar
16 11 49 1
17 12 13 Ar
18 12 20 Ar
19 12 43 1
20 13 14 Ar
21 13 53 1
22 14 15 1
23 14 16 Ar
24 16 17 1
25 16 18 Ar
26 18 19 1
27 18 20 Ar
28 20 52 1
29 21 22 1
30 21 23 1
31 21 24 1
32 21 25 1
33 25 26 Ar
34 25 43 Ar
35 26 27 1
36 26 28 Ar
37 28 29 1
38 28 44 Ar
39 29 30 1
40 29 31 1
41 29 32 1
42 33 34 Ar
43 33 41 Ar
44 33 44 1
45 34 35 Ar
46 34 51 1
47 35 36 1
48 35 37 Ar
49 37 38 1
50 37 39 Ar
51 39 40 1
52 39 41 Ar
53 41 50 1
54 42 47 1
