# imidodiisocyanide opt_f-47f
# Created by GaussView 6.0.16
#

#
#

@<TRIPOS>MOLECULE
Molecule Name
75 78
SMALL
NO_CHARGES


@<TRIPOS>ATOM
1 C1    -0.6374    -0.1213     1.1056 C
2 C2     1.4068     0.0698    -0.3635 C
3 C3     0.6251     3.0454    -0.4992 C
4 C4     0.6515     3.3177     0.8799 C
5 C5     1.4767     4.3161     1.3803 C
6 H6     1.4921     4.5145     2.4526 H
7 C7     2.2908     5.0562     0.5220 C
8 H8     2.9440     5.8329     0.9203 H
9 C9     2.2641     4.7972    -0.8479 C
10 H10     2.8985     5.3717    -1.5239 H
11 C11     1.4309     3.8085    -1.3583 C
12 C12    -3.3528     1.0466    -0.0194 C
13 C13    -3.4386     2.4284    -0.1823 C
14 C14    -4.0915     3.1998     0.7728 C
15 H15    -4.1521     4.2804     0.6421 H
16 C16    -4.6530     2.5993     1.8976 C
17 H17    -5.1557     3.2073     2.6496 H
18 C18    -4.5550     1.2206     2.0642 C
19 H19    -4.9766     0.7440     2.9493 H
20 C20    -3.9062     0.4448     1.1095 C
21 C21    -4.8006    -0.1028    -2.0712 C
22 H22    -5.3404    -0.4625    -1.1853 H
23 H23    -5.2048    -0.6051    -2.9548 H
24 H24    -4.9975     0.9741    -2.1449 H
25 C25    -3.3238    -0.3690    -1.9326 C
26 C26    -2.7502    -1.2956    -2.8117 C
27 H27    -3.4100    -1.6969    -3.5748 H
28 C28    -1.4800    -1.8867    -2.7277 C
29 C29    -1.2080    -3.0421    -3.6600 C
30 H30    -0.3782    -2.8116    -4.3401 H
31 H31    -2.0943    -3.2765    -4.2558 H
32 H32    -0.9136    -3.9353    -3.0939 H
33 C33     0.6322    -2.3223    -1.7470 C
34 C34     0.7530    -3.2338    -0.6984 C
35 C35     1.9211    -3.9725    -0.5458 C
36 H36     2.0063    -4.6753     0.2832 H
37 C37     2.9789    -3.8084    -1.4380 C
38 H38     3.8957    -4.3850    -1.3147 H
39 C39     2.8621    -2.8916    -2.4798 C
40 H40     3.6895    -2.7443    -3.1744 H
41 C41     1.6949    -2.1508    -2.6346 C
42 N42    -0.1528     2.0225    -1.0044 N
43 N43    -2.6440     0.2574    -0.9799 N
44 N44    -0.5459    -1.5224    -1.8561 N
45 Re45    -0.5631     0.2973    -0.7081 Re
46 H46     0.0203     2.7194     1.5363 H
47 H47     1.3977     3.5929    -2.4258 H
48 H48     1.6070    -1.4108    -3.4293 H
49 H49    -0.0647    -3.3324     0.0131 H
50 H50    -3.8038    -0.6315     1.2434 H
51 H51    -2.9635     2.8875    -1.0478 H
52 N52    -0.6397    -0.2694     2.3223 N
53 C53    -0.7507    -1.4543     3.0538 C
54 C54    -0.2290    -1.5097     4.3485 C
55 C55    -1.3966    -2.5818     2.5271 C
56 C56    -0.3324    -2.6788     5.0944 C
57 H57     0.2595    -0.6233     4.7511 H
58 C58    -1.5004    -3.7441     3.2811 C
59 H59    -1.8173    -2.5257     1.5231 H
60 H60     0.0840    -2.7116     6.1019 H
61 C61    -0.9663    -3.8017     4.5671 C
62 H62    -2.0071    -4.6142     2.8613 H
63 H63    -1.0500    -4.7144     5.1570 H
64 N64     2.5429     0.0536    -0.0914 N
65 C65     3.8598     0.2429     0.2656 C
66 C66     4.7187    -0.8521     0.3649 C
67 C67     4.3096     1.5413     0.5218 C
68 C68     6.0434    -0.6393     0.7275 C
69 H69     4.3340    -1.8485     0.1540 H
70 C70     5.6370     1.7338     0.8815 C
71 H71     3.6138     2.3755     0.4369 H
72 H72     6.7205    -1.4895     0.8096 H
73 C73     6.5057     0.6490     0.9860 C
74 H74     5.9943     2.7435     1.0834 H
75 H75     7.5457     0.8085     1.2699 H
@<TRIPOS>BOND
1 1 45 1
2 1 52 2
3 2 45 1
4 2 64 3
5 3 4 Ar
6 3 11 Ar
7 3 42 Ar
8 4 5 Ar
9 4 46 1
10 5 6 1
11 5 7 Ar
12 7 8 1
13 7 9 Ar
14 9 10 1
15 9 11 Ar
16 11 47 1
17 12 13 Ar
18 12 20 Ar
19 12 43 1
20 13 14 Ar
21 13 51 1
22 14 15 1
23 14 16 Ar
24 16 17 1
25 16 18 Ar
26 18 19 1
27 18 20 Ar
28 20 50 1
29 21 22 1
30 21 23 1
31 21 24 1
32 21 25 1
33 25 26 Ar
34 25 43 Ar
35 26 27 1
36 26 28 Ar
37 28 29 1
38 28 44 Ar
39 29 30 1
40 29 31 1
41 29 32 1
42 33 34 Ar
43 33 41 Ar
44 33 44 1
45 34 35 Ar
46 34 49 1
47 35 36 1
48 35 37 Ar
49 37 38 1
50 37 39 Ar
51 39 40 1
52 39 41 Ar
53 41 48 1
54 42 45 1
55 52 53 1
56 53 54 Ar
57 53 55 Ar
58 54 56 Ar
59 54 57 1
60 55 58 Ar
61 55 59 1
62 56 60 1
63 56 61 Ar
64 58 61 Ar
65 58 62 1
66 61 63 1
67 64 65 Ar
68 65 66 Ar
69 65 67 Ar
70 66 68 Ar
71 66 69 1
72 67 70 Ar
73 67 71 1
74 68 72 1
75 68 73 Ar
76 70 73 Ar
77 70 74 1
78 73 75 1
