@<TRIPOS>MOLECULE
Molecule Name
    51    53     1     0     0
SMALL
NO_CHARGES
****
Generated from the CSD

@<TRIPOS>ATOM
     1 C1       1.2414  -1.6755  -1.0184   C.1       1 1      0.0000
     2 C2      -2.2414  -1.8874   0.2486   C.2       1 1      0.0000
     3 C3      -3.4326  -1.7748  -0.4818   C.2       1 1      0.0000
     4 C4      -4.5429  -2.5189  -0.1066   C.2       1 1      0.0000
     5 H5      -5.4713  -2.4264  -0.6705   H         1 1      0.0000
     6 C6      -4.4717  -3.3835   0.9848   C.2       1 1      0.0000
     7 H7      -5.3444  -3.9699   1.2730   H         1 1      0.0000
     8 C8      -3.2851  -3.4996   1.7088   C.2       1 1      0.0000
     9 H9      -3.2307  -4.1769   2.5615   H         1 1      0.0000
    10 C10     -2.1715  -2.7532   1.3490   C.2       1 1      0.0000
    11 C11     -1.9080   1.8110  -0.2320   C.2       1 1      0.0000
    12 C12     -2.2659   2.0678  -1.5537   C.2       1 1      0.0000
    13 C13     -3.6093   2.1094  -1.9137   C.2       1 1      0.0000
    14 H14     -3.8823   2.3075  -2.9505   H         1 1      0.0000
    15 C15     -4.6010   1.8905  -0.9601   C.2       1 1      0.0000
    16 H16     -5.6522   1.9145  -1.2468   H         1 1      0.0000
    17 C17     -4.2402   1.6230   0.3578   C.2       1 1      0.0000
    18 H18     -5.0076   1.4299   1.1074   H         1 1      0.0000
    19 C19     -2.8986   1.5831   0.7224   C.2       1 1      0.0000
    20 C20     -0.8094   4.0617   0.8916   C.3       1 1      0.0000
    21 H21     -1.2776   4.3662  -0.0534   H         1 1      0.0000
    22 H22     -0.1888   4.8834   1.2602   H         1 1      0.0000
    23 H23     -1.6241   3.8898   1.6066   H         1 1      0.0000
    24 C24      0.0200   2.8168   0.7016   C.2       1 1      0.0000
    25 C25      1.3601   2.8683   1.1027   C.2       1 1      0.0000
    26 H26      1.6852   3.7922   1.5716   H         1 1      0.0000
    27 C27      2.3374   1.8960   0.9135   C.2       1 1      0.0000
    28 C28      3.7291   2.2249   1.3945   C.3       1 1      0.0000
    29 H29      4.0913   1.4613   2.0950   H         1 1      0.0000
    30 H30      3.7421   3.1975   1.8944   H         1 1      0.0000
    31 H31      4.4417   2.2496   0.5603   H         1 1      0.0000
    32 C32      3.2602  -0.1192   0.1030   C.2       1 1      0.0000
    33 C33      3.9872   0.0247  -1.0771   C.2       1 1      0.0000
    34 C34      5.0740  -0.8069  -1.3320   C.2       1 1      0.0000
    35 H35      5.6286  -0.6994  -2.2644   H         1 1      0.0000
    36 C36      5.4433  -1.7788  -0.4077   C.2       1 1      0.0000
    37 H37      6.2882  -2.4362  -0.6119   H         1 1      0.0000
    38 C38      4.7174  -1.9185   0.7740   C.2       1 1      0.0000
    39 H39      4.9946  -2.6858   1.4973   H         1 1      0.0000
    40 C40      3.6296  -1.0931   1.0306   C.2       1 1      0.0000
    41 N41     -1.1624  -1.1206  -0.1130   N.3       1 1      0.0000
    42 N42      2.1093   0.7063   0.3345   N.2       1 1      0.0000
    43 N43     -0.5244   1.7411   0.1429   N.2       1 1      0.0000
    44 Re44     0.2686  -0.1547  -0.2299   Re        1 1      0.0000
    45 H45      3.0336  -1.2093   1.9345   H         1 1      0.0000
    46 H46      3.6763   0.7781  -1.8001   H         1 1      0.0000
    47 H47     -1.4797   2.2110  -2.2927   H         1 1      0.0000
    48 H48     -2.6045   1.3482   1.7447   H         1 1      0.0000
    49 H49     -3.4622  -1.0883  -1.3267   H         1 1      0.0000
    50 H50     -1.2339  -2.8201   1.8993   H         1 1      0.0000
    51 O51      1.7307  -2.5764  -1.5373   O.2       1 1      0.0000
@<TRIPOS>BOND
     1     1    44    1
     2     1    51    3
     3     2     3   un
     4     2    10   un
     5     2    41   un
     6     3     4   un
     7     3    49    1
     8     4     5    1
     9     4     6   un
    10     6     7    1
    11     6     8   un
    12     8     9    1
    13     8    10   un
    14    10    50    1
    15    11    12   un
    16    11    19   un
    17    11    43    1
    18    12    13   un
    19    12    47    1
    20    13    14    1
    21    13    15   un
    22    15    16    1
    23    15    17   un
    24    17    18    1
    25    17    19   un
    26    19    48    1
    27    20    21    1
    28    20    22    1
    29    20    23    1
    30    20    24    1
    31    24    25   un
    32    24    43   un
    33    25    26    1
    34    25    27   un
    35    27    28    1
    36    27    42   un
    37    28    29    1
    38    28    30    1
    39    28    31    1
    40    32    33   un
    41    32    40   un
    42    32    42    1
    43    33    34   un
    44    33    46    1
    45    34    35    1
    46    34    36   un
    47    36    37    1
    48    36    38   un
    49    38    39    1
    50    38    40   un
    51    40    45    1
    52    41    44    1
    53    43    44    1
@<TRIPOS>SUBSTRUCTURE
     1 RES1        1 GROUP             0 ****  ****    0  
