# oxoimido
# Created by GaussView 6.0.16
#

#
#

@<TRIPOS>MOLECULE
Molecule Name
50 53
SMALL
NO_CHARGES


@<TRIPOS>ATOM
1 C1    -2.4705    -2.8209    -1.9495 C
2 H2    -3.1972    -3.1463    -1.1892 H
3 H3    -2.2005    -3.6769    -2.5802 H
4 H4    -2.9753    -2.0671    -2.5742 H
5 C5    -1.2465    -2.2299    -1.2967 C
6 C6     0.0005    -2.7248    -1.6902 C
7 H7     0.0007    -3.5333    -2.4187 H
8 C8     1.2472    -2.2292    -1.2968 C
9 C9     2.4715    -2.8199    -1.9494 C
10 H10     3.1987    -3.1438    -1.1890 H
11 H11     2.9754    -2.0665    -2.5752 H
12 H12     2.2019    -3.6769    -2.5789 H
13 C13     2.7199    -0.7517    -0.1540 C
14 C14     3.4716    -1.2021     0.9321 C
15 C15     4.7357    -0.6671     1.1678 C
16 H16     5.3185    -1.0172     2.0228 H
17 C17     5.2524     0.3173     0.3251 C
18 H18     6.2405     0.7404     0.5176 H
19 C19     4.4955     0.7689    -0.7557 C
20 H20     4.8877     1.5490    -1.4122 H
21 C21     3.2317     0.2355    -0.9976 C
22 C22    -2.7199    -0.7536    -0.1533 C
23 C23    -3.4716    -1.2057     0.9321 C
24 C24    -4.7360    -0.6716     1.1683 C
25 H25    -5.3188    -1.0230     2.0228 H
26 C26    -5.2531     0.3135     0.3267 C
27 H27    -6.2414     0.7359     0.5196 H
28 C28    -4.4962     0.7667    -0.7535 C
29 H29    -4.8888     1.5474    -1.4092 H
30 C30    -3.2321     0.2343    -0.9958 C
31 C31    -0.0004     2.5792     0.0683 C
32 C32    -1.2130     3.2283    -0.2207 C
33 C33    -1.2045     4.4901    -0.8079 C
34 H34    -2.1547     4.9845    -1.0273 H
35 C35    -0.0008     5.1292    -1.1089 C
36 H36    -0.0010     6.1209    -1.5663 H
37 C37     1.2031     4.4902    -0.8083 C
38 H38     2.1531     4.9848    -1.0280 H
39 C39     1.2119     3.2285    -0.2211 C
40 N40    -1.3995    -1.2668    -0.3842 N
41 N41     1.3998    -1.2658    -0.3845 N
42 N42    -0.0002     1.3272     0.6334 N
43 O43     0.0001    -1.0839     2.4261 O
44 Re44    -0.0000    -0.4089     0.8609 Re
45 H45    -2.6176     0.6011    -1.8207 H
46 H46    -3.0446    -1.9567     1.6000 H
47 H47     3.0449    -1.9525     1.6007 H
48 H48     2.6172     0.6011    -1.8230 H
49 H49     2.1494     2.7262     0.0273 H
50 H50    -2.1503     2.7260     0.0281 H
@<TRIPOS>BOND
1 1 2 1
2 1 3 1
3 1 4 1
4 1 5 1
5 5 6 Ar
6 5 40 Ar
7 6 7 1
8 6 8 Ar
9 8 9 1
10 8 41 Ar
11 9 10 1
12 9 11 1
13 9 12 1
14 13 14 Ar
15 13 21 Ar
16 13 41 1
17 14 15 Ar
18 14 47 1
19 15 16 1
20 15 17 Ar
21 17 18 1
22 17 19 Ar
23 19 20 1
24 19 21 Ar
25 21 48 1
26 22 23 Ar
27 22 30 Ar
28 22 40 1
29 23 24 Ar
30 23 46 1
31 24 25 1
32 24 26 Ar
33 26 27 1
34 26 28 Ar
35 28 29 1
36 28 30 Ar
37 30 45 1
38 31 32 Ar
39 31 39 Ar
40 31 42 Ar
41 32 33 Ar
42 32 50 1
43 33 34 1
44 33 35 Ar
45 35 36 1
46 35 37 Ar
47 37 38 1
48 37 39 Ar
49 39 49 1
50 40 44 1
51 41 44 1
52 42 44 1
53 43 44 1
