# oxoboranefluorophenyl
# Created by GaussView 6.0.16
#

#
#

@<TRIPOS>MOLECULE
Molecule Name
84 90
SMALL
NO_CHARGES


@<TRIPOS>ATOM
1 C1    22.7723    -9.7945     4.8643 C
2 C2    22.5635   -10.7364     3.8666 C
3 C3    23.5538   -11.6280     3.4658 C
4 C4    24.8117   -11.5783     4.0580 C
5 C5    25.0647   -10.6338     5.0481 C
6 C6    24.0442    -9.7713     5.4171 C
7 C7    21.2001    -6.7824     2.3919 C
8 C8    19.9963    -6.0921     2.4184 C
9 C9    18.9213    -6.4216     1.6003 C
10 C10    19.0362    -7.5047     0.7355 C
11 C11    20.2212    -8.2335     0.6919 C
12 C12    21.2790    -7.8536     1.5111 C
13 C13    23.5926    -5.4887     3.0837 C
14 C14    23.3881    -4.2836     2.4155 C
15 C15    24.3754    -3.3123     2.2874 C
16 C16    25.6339    -3.5504     2.8289 C
17 C17    25.8889    -4.7519     3.4823 C
18 C18    24.8734    -5.6940     3.6000 C
19 C19    21.2739   -11.1308     6.9362 C
20 C20    22.4451   -11.8165     7.2598 C
21 C21    22.6261   -13.1260     6.8244 C
22 H22    23.5559   -13.6489     7.0573 H
23 C23    21.6318   -13.7609     6.0798 C
24 H24    21.7821   -14.7815     5.7229 H
25 C25    20.4518   -13.0814     5.7816 C
26 H26    19.6714   -13.5706     5.1953 H
27 C27    20.2707   -11.7679     6.2081 C
28 C28    20.4274   -10.5494     9.4768 C
29 H29    19.7161   -11.2601     9.0296 H
30 H30    20.0024   -10.1475    10.4043 H
31 H31    21.3358   -11.1196     9.7267 H
32 C32    20.7525    -9.4386     8.5099 C
33 C33    20.6404    -8.1220     8.9800 C
34 H34    20.2633    -8.0071     9.9941 H
35 C35    21.0586    -6.9536     8.3458 C
36 C36    20.9671    -5.6760     9.1440 C
37 H37    21.9673    -5.2394     9.2879 H
38 H38    20.5165    -5.8610    10.1259 H
39 H39    20.3675    -4.9241     8.6091 H
40 C40    22.1173    -5.6417     6.6822 C
41 C41    23.4738    -5.3960     6.8829 C
42 C42    24.0322    -4.1953     6.4501 C
43 H43    25.0985    -4.0130     6.5989 H
44 C44    23.2395    -3.2409     5.8135 C
45 H45    23.6821    -2.3075     5.4599 H
46 C46    21.8833    -3.4939     5.6099 C
47 H47    21.2588    -2.7631     5.0928 H
48 C48    21.3219    -4.6910     6.0472 C
49 B49    22.4129    -6.5055     3.4049 B
50 N50    19.9637    -8.6522     4.8539 N
51 N51    21.1368    -9.7395     7.2731 N
52 N52    21.5553    -6.9040     7.0956 N
53 O53    22.4310    -7.1369     4.5500 O
54 F54    21.3758   -10.8439     3.2593 F
55 F55    23.3081   -12.5294     2.5233 F
56 F56    25.7609   -12.4275     3.6847 F
57 F57    26.2545   -10.5834     5.6353 F
58 F58    24.2771    -8.8996     6.4238 F
59 F59    19.8311    -5.0734     3.2684 F
60 F60    17.7933    -5.7241     1.6426 F
61 F61    18.0196    -7.8453    -0.0425 F
62 F62    20.3247    -9.2749    -0.1222 F
63 F63    22.4096    -8.5605     1.4422 F
64 F64    22.1935    -3.9950     1.8980 F
65 F65    24.1277    -2.1645     1.6691 F
66 F66    26.5858    -2.6371     2.7233 F
67 F67    27.0902    -4.9781     3.9989 F
68 F68    25.1762    -6.8201     4.2359 F
69 Re69    21.4172    -8.4171     5.6858 Re
70 H70    19.3672   -11.2147     5.9461 H
71 H71    23.2287   -11.2995     7.8168 H
72 H72    24.0916    -6.1644     7.3492 H
73 H73    20.2686    -4.9107     5.8677 H
74 C74    18.7033    -8.6448     4.2885 C
75 C75    17.7869    -7.6446     4.6366 C
76 C76    18.3681    -9.6234     3.3457 C
77 C77    16.5391    -7.6184     4.0256 C
78 H78    18.0802    -6.8848     5.3629 H
79 C79    17.1135    -9.5867     2.7453 C
80 H80    19.1059   -10.3808     3.0829 H
81 C81    16.2005    -8.5862     3.0784 C
82 H82    15.8301    -6.8282     4.2791 H
83 H83    16.8541   -10.3377     1.9969 H
84 H84    15.2257    -8.5521     2.5885 H
@<TRIPOS>BOND
1 1 2 Ar
2 1 6 Ar
3 1 69 1
4 2 3 Ar
5 2 54 1
6 3 4 Ar
7 3 55 1
8 4 5 Ar
9 4 56 1
10 5 6 Ar
11 5 57 1
12 6 58 1
13 7 8 Ar
14 7 12 Ar
15 7 49 1
16 8 9 Ar
17 8 59 1
18 9 10 Ar
19 9 60 1
20 10 11 Ar
21 10 61 1
22 11 12 Ar
23 11 62 1
24 12 63 1
25 13 14 Ar
26 13 18 Ar
27 13 49 1
28 14 15 Ar
29 14 64 1
30 15 16 Ar
31 15 65 1
32 16 17 Ar
33 16 66 1
34 17 18 Ar
35 17 67 1
36 18 68 1
37 19 20 Ar
38 19 27 Ar
39 19 51 1
40 20 21 Ar
41 20 71 1
42 21 22 1
43 21 23 Ar
44 23 24 1
45 23 25 Ar
46 25 26 1
47 25 27 Ar
48 27 70 1
49 28 29 1
50 28 30 1
51 28 31 1
52 28 32 1
53 32 33 Ar
54 32 51 Ar
55 33 34 1
56 33 35 Ar
57 35 36 1
58 35 52 Ar
59 36 37 1
60 36 38 1
61 36 39 1
62 40 41 Ar
63 40 48 Ar
64 40 52 1
65 41 42 Ar
66 41 72 1
67 42 43 1
68 42 44 Ar
69 44 45 1
70 44 46 Ar
71 46 47 1
72 46 48 Ar
73 48 73 1
74 49 53 1
75 50 69 1
76 50 74 Ar
77 51 69 1
78 52 69 1
79 53 69 1
80 74 75 Ar
81 74 76 Ar
82 75 77 Ar
83 75 78 1
84 76 79 Ar
85 76 80 1
86 77 81 Ar
87 77 82 1
88 79 81 Ar
89 79 83 1
90 81 84 1
