# cyclometallated product with iPr groups
# Created by GaussView 6.0.16
#

#
#

@<TRIPOS>MOLECULE
Molecule Name
108 113
SMALL
NO_CHARGES


@<TRIPOS>ATOM
1 C1    -1.0613     8.3693    16.3124 C
2 C2    -2.2201     8.8977    15.6892 C
3 C3    -3.1353     9.6727    16.4133 C
4 H4    -4.0311    10.0558    15.9209 H
5 C5    -2.9258     9.9401    17.7622 C
6 H6    -3.6378    10.5457    18.3253 H
7 C7    -1.7993     9.4078    18.3908 C
8 H8    -1.6262     9.5969    19.4520 H
9 C9    -0.8832     8.6373    17.6779 C
10 H10    -0.0166     8.2554    18.2098 H
11 C11    -3.3658     8.8268    13.0998 C
12 C12    -3.6461     7.9200    12.0644 C
13 H13    -3.1852     6.9312    12.0911 H
14 C14    -4.4642     8.2768    10.9974 C
15 H15    -4.6662     7.5582    10.2013 H
16 C16    -5.0082     9.5606    10.9373 C
17 H17    -5.6400     9.8481    10.0948 H
18 C18    -4.7379    10.4790    11.9516 C
19 H19    -5.1550    11.4861    11.9011 H
20 C20    -3.9312    10.1086    13.0264 C
21 H21    -3.7091    10.8413    13.8048 H
22 C22     0.3756     4.4930    16.5584 C
23 C23    -0.6336     4.0632    17.4289 C
24 C24    -0.5748     2.7821    17.9673 C
25 H25    -1.3628     2.4455    18.6447 H
26 C26     0.4793     1.9264    17.6419 C
27 H27     0.5172     0.9198    18.0637 H
28 C28     1.4849     2.3606    16.7771 C
29 H29     2.3127     1.6947    16.5221 H
30 C30     1.4425     3.6431    16.2390 C
31 C31     1.9226     9.1400    16.4142 C
32 C32     1.3889    10.4230    16.1817 C
33 C33     1.4099    11.3399    17.2311 C
34 H34     0.9943    12.3376    17.0870 H
35 C35     1.9325    10.9963    18.4744 C
36 H36     1.9307    11.7255    19.2874 H
37 C37     2.4356     9.7196    18.6861 C
38 H38     2.8223     9.4547    19.6726 H
39 C39     2.4435     8.7651    17.6647 C
40 C40     4.2821     8.7498    15.1006 C
41 H41     4.0451     9.8001    15.3183 H
42 H42     5.0408     8.7092    14.3097 H
43 H43     4.7147     8.3220    16.0167 H
44 C44     3.0501     7.9782    14.6897 C
45 C45     3.2133     7.0695    13.6490 C
46 H46     4.2320     6.9177    13.2977 H
47 C47     2.1972     6.4874    12.8718 C
48 C48     2.6325     5.6524    11.6912 C
49 H49     2.2934     4.6141    11.8330 H
50 H50     3.7240     5.6551    11.5863 H
51 H51     2.1787     6.0078    10.7552 H
52 C52     0.0121     6.3683    12.0235 C
53 C53    -0.2600     7.3899    11.0929 C
54 C54    -1.0628     7.0801     9.9959 C
55 H55    -1.2928     7.8515     9.2599 H
56 C56    -1.6079     5.8087     9.8407 C
57 H57    -2.2429     5.5871     8.9800 H
58 C58    -1.3711     4.8337    10.8012 C
59 H59    -1.8285     3.8483    10.6892 H
60 C60    -0.5565     5.0925    11.9080 C
61 N61     0.3196     5.7545    16.0094 N
62 N62     1.8921     8.1880    15.3392 N
63 N63     0.9070     6.6788    13.1062 N
64 O64    -1.4071     7.4818    13.8822 O
65 Re65     0.1493     7.1448    15.0366 Re
66 B66    -2.3486     8.4060    14.2183 B
67 H67     2.2208     4.0053    15.5639 H
68 H68    -1.4534     4.7454    17.6610 H
69 C69     2.9593     7.3601    17.9555 C
70 C70     1.9814     6.5778    18.8431 C
71 C71     4.3513     7.3718    18.6021 C
72 H72     3.0332     6.8141    17.0020 H
73 H73     0.9995     6.4716    18.3611 H
74 H74     2.3674     5.5635    19.0412 H
75 H75     1.8368     7.0885    19.8109 H
76 H76     5.0658     7.9988    18.0433 H
77 H77     4.3114     7.7607    19.6340 H
78 H78     4.7578     6.3472    18.6526 H
79 C79     0.7734    10.7796    14.8353 C
80 C80     1.8329    11.1773    13.8007 C
81 C81    -0.3313    11.8326    14.9301 C
82 H82     0.2850     9.8680    14.4536 H
83 H83     2.5167    10.3430    13.5745 H
84 H84     1.3503    11.4733    12.8535 H
85 H85     2.4337    12.0310    14.1614 H
86 H86    -1.0561    11.5727    15.7179 H
87 H87     0.0734    12.8391    15.1361 H
88 H88    -0.8754    11.8842    13.9716 H
89 C89    -0.3526     4.0240    12.9697 C
90 C90     0.0717     2.6696    12.3925 C
91 C91    -1.6175     3.8785    13.8264 C
92 H92     0.4591     4.3581    13.6333 H
93 H93     0.9572     2.7631    11.7407 H
94 H94     0.3180     1.9714    13.2114 H
95 H95    -0.7337     2.2086    11.7950 H
96 H96    -1.9182     4.8467    14.2578 H
97 H97    -2.4594     3.5085    13.2152 H
98 H98    -1.4488     3.1659    14.6524 H
99 C99     0.2780     8.8014    11.2932 C
100 C100    -0.7030     9.8842    10.8323 C
101 C101     1.6430     9.0020    10.6214 C
102 H102     0.4203     8.9372    12.3773 H
103 H103    -1.7140     9.7081    11.2313 H
104 H104    -0.3608    10.8730    11.1832 H
105 H105    -0.7692     9.9364     9.7318 H
106 H106     2.4169     8.3451    11.0490 H
107 H107     1.5766     8.7959     9.5382 H
108 H108     1.9859    10.0432    10.7506 H
@<TRIPOS>BOND
1 1 2 Ar
2 1 9 Ar
3 1 65 1
4 2 3 Ar
5 2 66 1
6 3 4 1
7 3 5 Ar
8 5 6 1
9 5 7 Ar
10 7 8 1
11 7 9 Ar
12 9 10 1
13 11 12 Ar
14 11 20 Ar
15 11 66 1
16 12 13 1
17 12 14 Ar
18 14 15 1
19 14 16 Ar
20 16 17 1
21 16 18 Ar
22 18 19 1
23 18 20 Ar
24 20 21 1
25 22 23 Ar
26 22 30 Ar
27 22 61 Ar
28 23 24 Ar
29 23 68 1
30 24 25 1
31 24 26 Ar
32 26 27 1
33 26 28 Ar
34 28 29 1
35 28 30 Ar
36 30 67 1
37 31 32 Ar
38 31 39 Ar
39 31 62 1
40 32 33 Ar
41 32 79 1
42 33 34 1
43 33 35 Ar
44 35 36 1
45 35 37 Ar
46 37 38 1
47 37 39 Ar
48 39 69 1
49 40 41 1
50 40 42 1
51 40 43 1
52 40 44 1
53 44 45 Ar
54 44 62 Ar
55 45 46 1
56 45 47 Ar
57 47 48 1
58 47 63 Ar
59 48 49 1
60 48 50 1
61 48 51 1
62 52 53 Ar
63 52 60 Ar
64 52 63 1
65 53 54 Ar
66 53 99 1
67 54 55 1
68 54 56 Ar
69 56 57 1
70 56 58 Ar
71 58 59 1
72 58 60 Ar
73 60 89 1
74 61 65 1
75 62 65 1
76 64 65 1
77 64 66 1
78 69 70 1
79 69 71 1
80 69 72 1
81 70 73 1
82 70 74 1
83 70 75 1
84 71 76 1
85 71 77 1
86 71 78 1
87 79 80 1
88 79 81 1
89 79 82 1
90 80 83 1
91 80 84 1
92 80 85 1
93 81 86 1
94 81 87 1
95 81 88 1
96 89 90 1
97 89 91 1
98 89 92 1
99 90 93 1
100 90 94 1
101 90 95 1
102 91 96 1
103 91 97 1
104 91 98 1
105 99 100 1
106 99 101 1
107 99 102 1
108 100 103 1
109 100 104 1
110 100 105 1
111 101 106 1
112 101 107 1
113 101 108 1
