# cyclometallated product
# Created by GaussView 6.0.16
#

#
#

@<TRIPOS>MOLECULE
Molecule Name
72 77
SMALL
NO_CHARGES


@<TRIPOS>ATOM
1 C1    -1.0831     8.2291    16.2647 C
2 C2    -2.1100     9.0137    15.6832 C
3 C3    -3.0097     9.7171    16.4962 C
4 H4    -3.8114    10.3035    16.0431 H
5 C5    -2.9132     9.6507    17.8833 C
6 H6    -3.6137    10.2014    18.5131 H
7 C7    -1.9244     8.8515    18.4615 C
8 H8    -1.8535     8.7757    19.5486 H
9 C9    -1.0241     8.1483    17.6644 C
10 H10    -0.2588     7.5382    18.1460 H
11 C11    -3.0343     9.5573    13.0608 C
12 C12    -3.3304     8.8827    11.8639 C
13 H13    -2.9184     7.8842    11.7074 H
14 C14    -4.1306     9.4661    10.8855 C
15 H15    -4.3584     8.9204     9.9680 H
16 C16    -4.6381    10.7521    11.0769 C
17 H17    -5.2607    11.2150    10.3090 H
18 C18    -4.3453    11.4459    12.2503 C
19 H19    -4.7339    12.4546    12.3994 H
20 C20    -3.5569    10.8484    13.2327 C
21 H21    -3.3271    11.4059    14.1427 H
22 C22     0.0660     4.5617    16.4267 C
23 C23    -1.1213     4.4024    17.1570 C
24 C24    -1.3758     3.1956    17.7998 C
25 H25    -2.3001     3.0739    18.3695 H
26 C26    -0.4631     2.1425    17.7146 C
27 H27    -0.6709     1.1957    18.2176 H
28 C28     0.7160     2.3032    16.9860 C
29 H29     1.4336     1.4821    16.9182 H
30 C30     0.9887     3.5098    16.3472 C
31 C31     1.7665     9.1037    16.4353 C
32 C32     1.2101    10.3819    16.4039 C
33 C33     1.1136    11.1268    17.5754 C
34 H34     0.6535    12.1166    17.5495 H
35 C35     1.5843    10.6041    18.7796 C
36 H36     1.4967    11.1845    19.7003 H
37 C37     2.1497     9.3300    18.8065 C
38 H38     2.5093     8.9098    19.7486 H
39 C39     2.2394     8.5792    17.6369 C
40 C40     4.1147     9.1077    15.0654 C
41 H41     3.8078    10.1584    15.1832 H
42 H42     4.9653     9.0615    14.3752 H
43 H43     4.4415     8.7588    16.0567 H
44 C44     2.9639     8.2748    14.5509 C
45 C45     3.1895     7.5472    13.3920 C
46 H46     4.1975     7.6009    12.9846 H
47 C47     2.2540     6.8178    12.6178 C
48 C48     2.7591     6.2018    11.3347 C
49 H49     2.3341     5.1979    11.1881 H
50 H50     3.8545     6.1367    11.3382 H
51 H51     2.4528     6.8134    10.4710 H
52 C52     0.0777     6.0726    12.0607 C
53 C53    -0.3761     6.7606    10.9343 C
54 C54    -1.3115     6.1713    10.0887 C
55 H55    -1.6728     6.7218     9.2171 H
56 C56    -1.8045     4.8957    10.3656 C
57 H57    -2.5466     4.4392     9.7071 H
58 C58    -1.3569     4.2133    11.4959 C
59 H59    -1.7434     3.2177    11.7250 H
60 C60    -0.4198     4.7996    12.3446 C
61 N61     0.3291     5.7623    15.7984 N
62 N62     1.7995     8.3048    15.2416 N
63 N63     0.9921     6.6933    12.9611 N
64 O64    -1.2119     7.9330    13.6801 O
65 Re65     0.1501     7.1964    14.8712 Re
66 B66    -2.1251     8.8509    14.1307 B
67 H67     1.9102     3.6559    15.7802 H
68 H68    -1.8219     5.2386    17.2095 H
69 H69     2.6436     7.5648    17.6504 H
70 H70     0.8165    10.7667    15.4616 H
71 H71    -0.0190     7.7756    10.7532 H
72 H72    -0.0740     4.2795    13.2410 H
@<TRIPOS>BOND
1 1 2 Ar
2 1 9 Ar
3 1 65 1
4 2 3 Ar
5 2 66 1
6 3 4 1
7 3 5 Ar
8 5 6 1
9 5 7 Ar
10 7 8 1
11 7 9 Ar
12 9 10 1
13 11 12 Ar
14 11 20 Ar
15 11 66 1
16 12 13 1
17 12 14 Ar
18 14 15 1
19 14 16 Ar
20 16 17 1
21 16 18 Ar
22 18 19 1
23 18 20 Ar
24 20 21 1
25 22 23 Ar
26 22 30 Ar
27 22 61 Ar
28 23 24 Ar
29 23 68 1
30 24 25 1
31 24 26 Ar
32 26 27 1
33 26 28 Ar
34 28 29 1
35 28 30 Ar
36 30 67 1
37 31 32 Ar
38 31 39 Ar
39 31 62 1
40 32 33 Ar
41 32 70 1
42 33 34 1
43 33 35 Ar
44 35 36 1
45 35 37 Ar
46 37 38 1
47 37 39 Ar
48 39 69 1
49 40 41 1
50 40 42 1
51 40 43 1
52 40 44 1
53 44 45 Ar
54 44 62 Ar
55 45 46 1
56 45 47 Ar
57 47 48 1
58 47 63 2
59 48 49 1
60 48 50 1
61 48 51 1
62 52 53 Ar
63 52 60 Ar
64 52 63 1
65 53 54 Ar
66 53 71 1
67 54 55 1
68 54 56 Ar
69 56 57 1
70 56 58 Ar
71 58 59 1
72 58 60 Ar
73 60 72 1
74 61 65 1
75 62 65 1
76 64 65 1
77 64 66 1
