# oxoboranephenyl
# Created by GaussView 6.0.16
#

#
#

@<TRIPOS>MOLECULE
Molecule Name
84 89
SMALL
NO_CHARGES


@<TRIPOS>ATOM
1 C1    22.2307    -9.5734     4.3885 C
2 C2    21.5101   -10.4359     3.5402 C
3 C3    22.1468   -11.2705     2.6267 C
4 C4    23.5382   -11.2886     2.5303 C
5 C5    24.2781   -10.4548     3.3632 C
6 C6    23.6326    -9.6128     4.2688 C
7 C7    22.1733    -6.7542     2.6543 C
8 C8    20.8897    -6.1915     2.7125 C
9 C9    19.9819    -6.3616     1.6694 C
10 C10    20.3362    -7.1218     0.5565 C
11 C11    21.6054    -7.6953     0.4849 C
12 C12    22.5187    -7.4982     1.5177 C
13 C13    24.5992    -6.0792     3.8298 C
14 C14    25.1130    -5.4928     2.6638 C
15 C15    26.4103    -4.9839     2.6232 C
16 C16    27.2188    -5.0525     3.7567 C
17 C17    26.7271    -5.6287     4.9296 C
18 C18    25.4308    -6.1334     4.9604 C
19 C19    21.5775   -10.9443     6.9046 C
20 C20    22.7865   -11.5922     6.6595 C
21 C21    22.7887   -12.9017     6.1873 C
22 H22    23.7386   -13.3920     5.9651 H
23 C23    21.5868   -13.5761     5.9778 C
24 H24    21.5916   -14.5978     5.5928 H
25 C25    20.3786   -12.9356     6.2509 C
26 H26    19.4326   -13.4589     6.0923 H
27 C27    20.3744   -11.6229     6.7144 C
28 C28    21.7049   -10.4326     9.5730 C
29 H29    20.8943   -11.1684     9.4585 H
30 H30    21.7162   -10.0749    10.6093 H
31 H31    22.6474   -10.9630     9.3679 H
32 C32    21.5205    -9.2829     8.6105 C
33 C33    21.3527    -8.0213     9.1686 C
34 H34    21.3688    -7.9771    10.2558 H
35 C35    21.1512    -6.7871     8.5083 C
36 C36    20.9467    -5.5634     9.3681 C
37 H37    21.7063    -4.8008     9.1357 H
38 H38    21.0041    -5.8114    10.4346 H
39 H39    19.9648    -5.1105     9.1595 H
40 C40    20.9103    -5.3898     6.6083 C
41 C41    21.9716    -4.5458     6.2749 C
42 C42    21.7237    -3.3542     5.5971 C
43 H43    22.5620    -2.7138     5.3153 H
44 C44    20.4195    -2.9891     5.2641 C
45 H45    20.2315    -2.0604     4.7216 H
46 C46    19.3577    -3.8206     5.6201 C
47 H47    18.3326    -3.5423     5.3652 H
48 C48    19.6022    -5.0187     6.2870 C
49 B49    23.1347    -6.6529     3.9009 B
50 N50    19.6732    -8.4820     5.2254 N
51 N51    21.5398    -9.5584     7.2890 N
52 N52    21.1441    -6.6673     7.1991 N
53 O53    22.6647    -7.0430     5.1034 O
54 Re54    21.2816    -8.2497     5.7464 Re
55 H55    19.4383   -11.0962     6.9099 H
56 H56    23.7210   -11.0479     6.7973 H
57 H57    22.9902    -4.8504     6.5142 H
58 H58    18.7843    -5.6938     6.5465 H
59 C59    18.4317    -8.5311     4.6286 C
60 C60    17.8213    -7.3633     4.1521 C
61 C61    17.7859    -9.7673     4.4860 C
62 C62    16.5703    -7.4360     3.5491 C
63 H63    18.3483    -6.4141     4.2512 H
64 C64    16.5395    -9.8279     3.8709 C
65 H65    18.2823   -10.6693     4.8480 H
66 C66    15.9248    -8.6649     3.4058 C
67 H67    16.0974    -6.5234     3.1793 H
68 H68    16.0422   -10.7936     3.7560 H
69 H69    14.9453    -8.7171     2.9258 H
70 H70    26.7925    -4.5316     1.7067 H
71 H71    28.2352    -4.6552     3.7280 H
72 H72    25.0432    -6.5845     5.8764 H
73 H73    27.3594    -5.6827     5.8175 H
74 H74    24.2544    -8.9772     4.9013 H
75 H75    25.3684   -10.4497     3.3087 H
76 H76    24.0368   -11.9434     1.8138 H
77 H77    21.5460   -11.9121     1.9794 H
78 H78    20.4212   -10.4525     3.5786 H
79 H79    18.9897    -5.9123     1.7287 H
80 H80    19.6202    -7.2721    -0.2532 H
81 H81    21.8819    -8.3058    -0.3759 H
82 H82    23.5021    -7.9697     1.4633 H
83 H83    20.5973    -5.6128     3.5930 H
84 H84    24.4817    -5.4330     1.7752 H
@<TRIPOS>BOND
1 1 2 Ar
2 1 6 Ar
3 1 54 1
4 2 3 Ar
5 2 78 1
6 3 4 Ar
7 3 77 1
8 4 5 Ar
9 4 76 1
10 5 6 Ar
11 5 75 1
12 6 74 1
13 7 8 Ar
14 7 12 Ar
15 7 49 1
16 8 9 Ar
17 8 83 1
18 9 10 Ar
19 9 79 1
20 10 11 Ar
21 10 80 1
22 11 12 Ar
23 11 81 1
24 12 82 1
25 13 14 Ar
26 13 18 Ar
27 13 49 1
28 14 15 Ar
29 14 84 1
30 15 16 Ar
31 15 70 1
32 16 17 Ar
33 16 71 1
34 17 18 Ar
35 17 73 1
36 18 72 1
37 19 20 Ar
38 19 27 Ar
39 19 51 1
40 20 21 Ar
41 20 56 1
42 21 22 1
43 21 23 Ar
44 23 24 1
45 23 25 Ar
46 25 26 1
47 25 27 Ar
48 27 55 1
49 28 29 1
50 28 30 1
51 28 31 1
52 28 32 1
53 32 33 Ar
54 32 51 Ar
55 33 34 1
56 33 35 Ar
57 35 36 1
58 35 52 2
59 36 37 1
60 36 38 1
61 36 39 1
62 40 41 Ar
63 40 48 Ar
64 40 52 1
65 41 42 Ar
66 41 57 1
67 42 43 1
68 42 44 Ar
69 44 45 1
70 44 46 Ar
71 46 47 1
72 46 48 Ar
73 48 58 1
74 49 53 1
75 50 54 1
76 50 59 Ar
77 51 54 1
78 53 54 1
79 59 60 Ar
80 59 61 Ar
81 60 62 Ar
82 60 63 1
83 61 64 Ar
84 61 65 1
85 62 66 Ar
86 62 67 1
87 64 66 Ar
88 64 68 1
89 66 69 1
