# oxoboranephenyl with iPr groups
# Created by GaussView 6.0.16
#

#
#

@<TRIPOS>MOLECULE
Molecule Name
120 125
SMALL
NO_CHARGES


@<TRIPOS>ATOM
1 C1    21.6186    -9.6701     4.2908 C
2 C2    20.7268   -10.3694     3.4535 C
3 C3    21.1658   -11.1976     2.4239 C
4 C4    22.5280   -11.3675     2.1816 C
5 C5    23.4374   -10.6993     2.9968 C
6 C6    22.9840    -9.8720     4.0221 C
7 C7    21.5786    -6.6801     2.6074 C
8 C8    20.6697    -5.6138     2.6588 C
9 C9    19.6644    -5.4785     1.7014 C
10 C10    19.5343    -6.4278     0.6889 C
11 C11    20.4210    -7.5036     0.6314 C
12 C12    21.4407    -7.6182     1.5734 C
13 C13    24.2262    -6.7229     3.3670 C
14 C14    24.6635    -6.2612     2.1174 C
15 C15    26.0218    -6.1876     1.8116 C
16 C16    26.9686    -6.5830     2.7552 C
17 C17    26.5547    -7.0456     4.0059 C
18 C18    25.1984    -7.1077     4.3014 C
19 C19    22.0601   -10.7868     7.0333 C
20 C20    23.4634   -10.8308     7.1403 C
21 C21    24.0887   -12.0703     6.9875 C
22 H22    25.1730   -12.1478     7.0709 H
23 C23    23.3527   -13.2143     6.7070 C
24 H24    23.8592   -14.1750     6.5921 H
25 C25    21.9778   -13.1274     6.5219 C
26 H26    21.4250   -14.0261     6.2471 H
27 C27    21.3000   -11.9158     6.6689 C
28 C28    21.2611   -10.4279     9.6076 C
29 H29    20.9925   -11.4154     9.2169 H
30 H30    20.6775   -10.2250    10.5146 H
31 H31    22.3238   -10.4802     9.8888 H
32 C32    21.0545    -9.3221     8.5956 C
33 C33    20.5472    -8.1289     9.0871 C
34 H34    20.2419    -8.1338    10.1320 H
35 C35    20.5835    -6.8527     8.4734 C
36 C36    20.1729    -5.7070     9.3724 C
37 H37    20.4843    -4.7276     8.9930 H
38 H38    20.5764    -5.8471    10.3847 H
39 H39    19.0741    -5.7109     9.4537 H
40 C40    21.1663    -5.3113     6.7883 C
41 C41    22.4369    -4.7568     7.0347 C
42 C42    22.6451    -3.4111     6.7241 C
43 H43    23.6183    -2.9563     6.9137 H
44 C44    21.6313    -2.6414     6.1719 C
45 H45    21.8028    -1.5870     5.9443 H
46 C46    20.4062    -3.2264     5.8722 C
47 H47    19.6388    -2.6129     5.4019 H
48 C48    20.1466    -4.5725     6.1481 C
49 B49    22.6981    -6.8578     3.7125 B
50 N50    19.3118    -8.5088     5.4419 N
51 N51    21.4060    -9.5350     7.3080 N
52 N52    20.9412    -6.6611     7.2209 N
53 O53    22.3251    -7.1324     4.9828 O
54 Re54    20.9689    -8.2798     5.7725 Re
55 C55    18.0444    -8.5362     4.9043 C
56 C56    17.8328    -8.0575     3.6042 C
57 C57    16.9783    -9.0405     5.6589 C
58 C58    16.5495    -8.0741     3.0702 C
59 H59    18.6842    -7.6812     3.0330 H
60 C60    15.6986    -9.0507     5.1136 C
61 H61    17.1729    -9.4049     6.6688 H
62 C62    15.4809    -8.5660     3.8222 C
63 H63    16.3850    -7.6996     2.0577 H
64 H64    14.8627    -9.4375     5.7008 H
65 H65    14.4738    -8.5744     3.3997 H
66 H66    26.3440    -5.8256     0.8342 H
67 H67    28.0324    -6.5317     2.5165 H
68 H68    24.8711    -7.4614     5.2785 H
69 H69    27.2930    -7.3571     4.7465 H
70 H70    23.7345    -9.3685     4.6270 H
71 H71    24.5108   -10.8127     2.8365 H
72 H72    22.8741   -12.0125     1.3727 H
73 H73    20.4307   -11.7084     1.7989 H
74 H74    19.6507   -10.2652     3.5909 H
75 H75    18.9734    -4.6361     1.7484 H
76 H76    18.7415    -6.3301    -0.0547 H
77 H77    20.3192    -8.2568    -0.1510 H
78 H78    22.1266    -8.4662     1.5215 H
79 H79    20.7556    -4.8746     3.4582 H
80 H80    23.9252    -5.9596     1.3720 H
81 C81    19.8045   -11.8230     6.3782 C
82 C82    18.9089   -11.8433     7.6254 C
83 C83    19.3296   -12.8815     5.3784 C
84 H84    19.6481   -10.8489     5.8972 H
85 H85    19.0137   -10.9283     8.2293 H
86 H86    17.8502   -11.9107     7.3196 H
87 H87    19.1282   -12.7152     8.2677 H
88 H88    19.9975   -12.9300     4.5038 H
89 H89    19.2699   -13.8863     5.8333 H
90 H90    18.3189   -12.6211     5.0208 H
91 C91    24.2916    -9.5600     7.3305 C
92 C92    25.6964    -9.6737     6.7296 C
93 C93    24.3939    -9.0828     8.7852 C
94 H94    23.7748    -8.7596     6.7725 H
95 H95    25.6688   -10.0335     5.6885 H
96 H96    26.1832    -8.6838     6.7354 H
97 H97    26.3391   -10.3525     7.3156 H
98 H98    23.4353    -8.6997     9.1658 H
99 H99    24.7392    -9.8983     9.4455 H
100 H100    25.1215    -8.2566     8.8587 H
101 C101    23.5723    -5.5875     7.6204 C
102 C102    23.6066    -5.5278     9.1540 C
103 C103    24.9393    -5.1828     7.0587 C
104 H104    23.3904    -6.6319     7.3224 H
105 H105    22.7413    -6.0313     9.6093 H
106 H106    24.5146    -6.0231     9.5383 H
107 H107    23.6175    -4.4797     9.5022 H
108 H108    24.9096    -5.0643     5.9653 H
109 H109    25.3005    -4.2388     7.5025 H
110 H110    25.6865    -5.9599     7.2950 H
111 C111    18.8360    -5.2110     5.6873 C
112 C112    18.0136    -4.3264     4.7473 C
113 C113    17.9254    -5.7090     6.8179 C
114 H114    19.1325    -6.0891     5.0921 H
115 H115    18.6168    -3.9233     3.9197 H
116 H116    17.2016    -4.9271     4.3044 H
117 H117    17.5521    -3.4777     5.2826 H
118 H118    18.3595    -6.5625     7.3561 H
119 H119    17.7160    -4.8996     7.5391 H
120 H120    16.9648    -6.0512     6.3982 H
@<TRIPOS>BOND
1 1 2 Ar
2 1 6 Ar
3 1 54 1
4 2 3 Ar
5 2 74 1
6 3 4 Ar
7 3 73 1
8 4 5 Ar
9 4 72 1
10 5 6 Ar
11 5 71 1
12 6 70 1
13 7 8 Ar
14 7 12 Ar
15 7 49 1
16 8 9 Ar
17 8 79 1
18 9 10 Ar
19 9 75 1
20 10 11 Ar
21 10 76 1
22 11 12 Ar
23 11 77 1
24 12 78 1
25 13 14 Ar
26 13 18 Ar
27 13 49 1
28 14 15 Ar
29 14 80 1
30 15 16 Ar
31 15 66 1
32 16 17 Ar
33 16 67 1
34 17 18 Ar
35 17 69 1
36 18 68 1
37 19 20 Ar
38 19 27 Ar
39 19 51 1
40 20 21 Ar
41 20 91 1
42 21 22 1
43 21 23 Ar
44 23 24 1
45 23 25 Ar
46 25 26 1
47 25 27 Ar
48 27 81 1
49 28 29 1
50 28 30 1
51 28 31 1
52 28 32 1
53 32 33 Ar
54 32 51 Ar
55 33 34 1
56 33 35 Ar
57 35 36 1
58 35 52 2
59 36 37 1
60 36 38 1
61 36 39 1
62 40 41 Ar
63 40 48 Ar
64 40 52 1
65 41 42 Ar
66 41 101 1
67 42 43 1
68 42 44 Ar
69 44 45 1
70 44 46 Ar
71 46 47 1
72 46 48 Ar
73 48 111 1
74 49 53 1
75 50 54 1
76 50 55 Ar
77 51 54 1
78 53 54 1
79 55 56 Ar
80 55 57 Ar
81 56 58 Ar
82 56 59 1
83 57 60 Ar
84 57 61 1
85 58 62 Ar
86 58 63 1
87 60 62 Ar
88 60 64 1
89 62 65 1
90 81 82 1
91 81 83 1
92 81 84 1
93 82 85 1
94 82 86 1
95 82 87 1
96 83 88 1
97 83 89 1
98 83 90 1
99 91 92 1
100 91 93 1
101 91 94 1
102 92 95 1
103 92 96 1
104 92 97 1
105 93 98 1
106 93 99 1
107 93 100 1
108 101 102 1
109 101 103 1
110 101 104 1
111 102 105 1
112 102 106 1
113 102 107 1
114 103 108 1
115 103 109 1
116 103 110 1
117 111 112 1
118 111 113 1
119 111 114 1
120 112 115 1
121 112 116 1
122 112 117 1
123 113 118 1
124 113 119 1
125 113 120 1
