# oxoboranefluoro
# Created by GaussView 6.0.16
#

#
#

@<TRIPOS>MOLECULE
Molecule Name
84 90
SMALL
NO_CHARGES


@<TRIPOS>ATOM
1 C1    -6.4408     3.4154    -3.1856 C
2 C2    -5.3302     3.2032    -4.0016 C
3 C3    -4.0849     2.8092    -3.5297 C
4 C4    -3.9098     2.6098    -2.1638 C
5 C5    -4.9847     2.8112    -1.3098 C
6 C6    -6.2157     3.2072    -1.8291 C
7 C7    -8.6337     2.8017    -4.7584 C
8 C8    -9.8896     3.1192    -5.2790 C
9 C9   -10.7154     2.2130    -5.9275 C
10 C10   -10.2820     0.9032    -6.0978 C
11 C11    -9.0335     0.5410    -5.6181 C
12 C12    -8.2460     1.4807    -4.9546 C
13 C13    -7.5127     5.3411    -4.6703 C
14 C14    -7.6187     5.5683    -6.0392 C
15 C15    -7.3618     6.8051    -6.6280 C
16 C16    -6.9691     7.8760    -5.8345 C
17 C17    -6.8255     7.6893    -4.4646 C
18 C18    -7.0878     6.4375    -3.9219 C
19 C19   -10.3135     1.4514    -1.3899 C
20 C20    -9.1494     0.7208    -1.6309 C
21 C21    -9.2060    -0.4254    -2.4191 C
22 H22    -8.2918    -0.9862    -2.6194 H
23 C23   -10.4153    -0.8343    -2.9789 C
24 H24   -10.4495    -1.7211    -3.6138 H
25 C25   -11.5719    -0.0881    -2.7536 C
26 H26   -12.5182    -0.3930    -3.2046 H
27 C27   -11.5256     1.0522    -1.9564 C
28 C28   -10.2009     1.1657     1.3579 C
29 H29   -11.0033     0.5511     0.9226 H
30 H30   -10.3402     1.2311     2.4435 H
31 H31    -9.2509     0.6460     1.1577 H
32 C32   -10.1825     2.5380     0.7392 C
33 C33   -10.0890     3.6388     1.5950 C
34 H34   -10.0499     3.4261     2.6614 H
35 C35   -10.0045     4.9806     1.2192 C
36 C36    -9.8608     6.0141     2.3039 C
37 H37    -8.8728     6.4964     2.2425 H
38 H38    -9.9692     5.5581     3.2951 H
39 H39   -10.6137     6.8083     2.1837 H
40 C40    -9.9318     6.7903    -0.3495 C
41 C41    -8.6708     7.3803    -0.4225 C
42 C42    -8.5558     8.7211    -0.7814 C
43 H43    -7.5660     9.1731    -0.8643 H
44 C44    -9.6969     9.4735    -1.0553 C
45 H45    -9.6033    10.5216    -1.3461 H
46 C46   -10.9577     8.8802    -0.9744 C
47 H47   -11.8538     9.4636    -1.1964 H
48 C48   -11.0787     7.5385    -0.6245 C
49 B49    -7.8345     3.9387    -3.8769 B
50 N50   -11.9092     4.4291    -2.2166 N
51 N51   -10.2583     2.6468    -0.5914 N
52 N52   -10.0472     5.3878    -0.0545 N
53 O53    -8.8128     4.3046    -2.7846 O
54 Re54   -10.2601     4.2986    -1.7412 Re
55 H55   -12.4229     1.6480    -1.7787 H
56 H56    -8.2027     1.0672    -1.2142 H
57 H57    -7.7847     6.7740    -0.2311 H
58 H58   -12.0561     7.0529    -0.5859 H
59 C59   -13.2453     4.4205    -2.5541 C
60 C60   -14.2168     4.4066    -1.5413 C
61 C61   -13.6307     4.4134    -3.9022 C
62 C62   -15.5655     4.3828    -1.8802 C
63 H63   -13.8927     4.4092    -0.4983 H
64 C64   -14.9824     4.3870    -4.2283 C
65 H65   -12.8586     4.4237    -4.6726 H
66 C66   -15.9503     4.3733    -3.2224 C
67 H67   -16.3228     4.3709    -1.0931 H
68 H68   -15.2827     4.3777    -5.2781 H
69 H69   -17.0101     4.3536    -3.4852 H
70 F70   -10.3651     4.3686    -5.1636 F
71 F71   -11.9095     2.5814    -6.3847 F
72 F72   -11.0600     0.0097    -6.6938 F
73 F73    -5.4501     3.3573    -5.3228 F
74 F74    -8.6143    -0.7132    -5.7529 F
75 F75    -7.0849     1.0162    -4.4843 F
76 F76    -3.0696     2.6129    -4.3610 F
77 F77    -2.7327     2.2316    -1.6847 F
78 F78    -4.8352     2.6264     0.0000 F
79 F79    -7.1863     3.3744    -0.9113 F
80 F80    -6.8974     6.3125    -2.6020 F
81 F81    -7.9728     4.5887    -6.8732 F
82 F82    -7.4890     6.9701    -7.9394 F
83 F83    -6.7242     9.0605    -6.3781 F
84 F84    -6.4317     8.6996    -3.6932 F
@<TRIPOS>BOND
1 1 2 Ar
2 1 6 Ar
3 1 49 1
4 2 3 Ar
5 2 73 1
6 3 4 Ar
7 3 76 1
8 4 5 Ar
9 4 77 1
10 5 6 Ar
11 5 78 1
12 6 79 1
13 7 8 Ar
14 7 12 Ar
15 7 49 1
16 8 9 Ar
17 8 70 1
18 9 10 Ar
19 9 71 1
20 10 11 2
21 10 72 1
22 11 12 Ar
23 11 74 1
24 12 75 1
25 13 14 Ar
26 13 18 Ar
27 13 49 1
28 14 15 Ar
29 14 81 1
30 15 16 Ar
31 15 82 1
32 16 17 Ar
33 16 83 1
34 17 18 Ar
35 17 84 1
36 18 80 1
37 19 20 Ar
38 19 27 Ar
39 19 51 1
40 20 21 Ar
41 20 56 1
42 21 22 1
43 21 23 Ar
44 23 24 1
45 23 25 Ar
46 25 26 1
47 25 27 Ar
48 27 55 1
49 28 29 1
50 28 30 1
51 28 31 1
52 28 32 1
53 32 33 Ar
54 32 51 Ar
55 33 34 1
56 33 35 Ar
57 35 36 1
58 35 52 Ar
59 36 37 1
60 36 38 1
61 36 39 1
62 40 41 Ar
63 40 48 Ar
64 40 52 1
65 41 42 Ar
66 41 57 1
67 42 43 1
68 42 44 Ar
69 44 45 1
70 44 46 Ar
71 46 47 1
72 46 48 Ar
73 48 58 1
74 49 53 1
75 50 54 1
76 50 59 Ar
77 51 54 1
78 52 54 1
79 53 54 1
80 59 60 Ar
81 59 61 Ar
82 60 62 Ar
83 60 63 1
84 61 64 Ar
85 61 65 1
86 62 66 Ar
87 62 67 1
88 64 66 Ar
89 64 68 1
90 66 69 1
