# oxoborane
# Created by GaussView 6.0.16
#

#
#

@<TRIPOS>MOLECULE
Molecule Name
84 90
SMALL
NO_CHARGES


@<TRIPOS>ATOM
1 C1    24.7111    -8.3311     4.1597 C
2 C2    25.8956    -8.5455     3.4336 C
3 C3    27.0009    -9.1828     3.9913 C
4 C4    26.9631    -9.6204     5.3161 C
5 C5    25.8124    -9.4015     6.0676 C
6 C6    24.7095    -8.7681     5.4909 C
7 C7    22.6354    -8.5881     2.4105 C
8 C8    21.2844    -8.3423     2.1106 C
9 C9    20.5465    -9.1697     1.2671 C
10 C10    21.1479   -10.2829     0.6819 C
11 C11    22.4885   -10.5478     0.9528 C
12 C12    23.2129    -9.7139     1.8062 C
13 C13    23.8468    -6.1494     2.8229 C
14 C14    23.2469    -5.6063     1.6788 C
15 C15    23.5265    -4.3078     1.2493 C
16 C16    24.4240    -3.5131     1.9589 C
17 C17    25.0487    -4.0347     3.0922 C
18 C18    24.7631    -5.3336     3.5073 C
19 C19    20.7570   -10.2194     5.9429 C
20 C20    21.5205   -10.7144     4.8856 C
21 C21    20.9879   -11.6999     4.0596 C
22 H22    21.5783   -12.0636     3.2177 H
23 C23    19.7053   -12.1958     4.2930 C
24 H24    19.2876   -12.9598     3.6343 H
25 C25    18.9519   -11.7040     5.3589 C
26 H26    17.9410   -12.0769     5.5365 H
27 C27    19.4750   -10.7128     6.1854 C
28 C28    21.9644   -10.7945     8.3686 C
29 H29    20.9903   -11.2924     8.4942 H
30 H30    22.5152   -10.8480     9.3151 H
31 H31    22.5158   -11.3537     7.5967 H
32 C32    21.7783    -9.3644     7.9366 C
33 C33    22.1883    -8.3489     8.8114 C
34 H34    22.5948    -8.6678     9.7690 H
35 C35    22.1451    -6.9743     8.5748 C
36 C36    22.6264    -6.0505     9.6615 C
37 H37    23.4112    -5.3814     9.2759 H
38 H38    23.0225    -6.6185    10.5116 H
39 H39    21.8029    -5.4100    10.0144 H
40 C40    21.7905    -5.0173     7.2280 C
41 C41    22.8444    -4.4778     6.4877 C
42 C42    22.8761    -3.1117     6.2232 C
43 H43    23.6893    -2.7040     5.6194 H
44 C44    21.8655    -2.2811     6.7065 C
45 H45    21.8879    -1.2106     6.4929 H
46 C46    20.8157    -2.8235     7.4486 C
47 H47    20.0160    -2.1779     7.8187 H
48 C48    20.7724    -4.1915     7.7069 C
49 B49    23.4530    -7.6088     3.4286 B
50 N50    19.4008    -7.3582     5.4699 N
51 N51    21.2517    -9.1272     6.7362 N
52 N52    21.7266    -6.4400     7.4200 N
53 O53    22.4191    -7.2683     4.5553 O
54 Re54    21.1175    -7.3823     5.7324 Re
55 H55    18.8811   -10.2856     6.9956 H
56 H56    22.5146   -10.3058     4.6954 H
57 H57    23.6137    -5.1404     6.0865 H
58 H58    19.9419    -4.6319     8.2628 H
59 C59    18.1518    -7.6022     4.9397 C
60 C60    17.0293    -6.8981     5.3973 C
61 C61    18.0063    -8.5846     3.9461 C
62 C62    15.7759    -7.1725     4.8583 C
63 H63    17.1585    -6.1356     6.1678 H
64 C64    16.7456    -8.8625     3.4310 C
65 H65    18.8916    -9.1240     3.6011 H
66 C66    15.6280    -8.1560     3.8789 C
67 H67    14.9040    -6.6160     5.2100 H
68 H68    16.6372    -9.6338     2.6651 H
69 H69    14.6409    -8.3708     3.4639 H
70 H70    23.0418    -3.9158     0.3530 H
71 H71    24.6456    -2.4978     1.6247 H
72 H72    25.2765    -5.7351     4.3845 H
73 H73    25.7695    -3.4299     3.6467 H
74 H74    23.8324    -8.6022     6.1176 H
75 H75    25.7702    -9.7203     7.1111 H
76 H76    27.8281   -10.1166     5.7596 H
77 H77    27.9011    -9.3330     3.3924 H
78 H78    25.9545    -8.1875     2.4029 H
79 H79    19.4987    -8.9402     1.0631 H
80 H80    20.5767   -10.9363     0.0202 H
81 H81    22.9750   -11.4160     0.5038 H
82 H82    24.2539    -9.9608     2.0190 H
83 H83    20.7864    -7.4727     2.5467 H
84 H84    22.5448    -6.2127     1.1039 H
@<TRIPOS>BOND
1 1 2 Ar
2 1 6 Ar
3 1 49 1
4 2 3 Ar
5 2 78 1
6 3 4 Ar
7 3 77 1
8 4 5 Ar
9 4 76 1
10 5 6 Ar
11 5 75 1
12 6 74 1
13 7 8 Ar
14 7 12 Ar
15 7 49 1
16 8 9 Ar
17 8 83 1
18 9 10 Ar
19 9 79 1
20 10 11 Ar
21 10 80 1
22 11 12 Ar
23 11 81 1
24 12 82 1
25 13 14 Ar
26 13 18 Ar
27 13 49 1
28 14 15 Ar
29 14 84 1
30 15 16 Ar
31 15 70 1
32 16 17 Ar
33 16 71 1
34 17 18 Ar
35 17 73 1
36 18 72 1
37 19 20 Ar
38 19 27 Ar
39 19 51 1
40 20 21 Ar
41 20 56 1
42 21 22 1
43 21 23 Ar
44 23 24 1
45 23 25 Ar
46 25 26 1
47 25 27 Ar
48 27 55 1
49 28 29 1
50 28 30 1
51 28 31 1
52 28 32 1
53 32 33 Ar
54 32 51 Ar
55 33 34 1
56 33 35 Ar
57 35 36 1
58 35 52 Ar
59 36 37 1
60 36 38 1
61 36 39 1
62 40 41 Ar
63 40 48 Ar
64 40 52 1
65 41 42 Ar
66 41 57 1
67 42 43 1
68 42 44 Ar
69 44 45 1
70 44 46 Ar
71 46 47 1
72 46 48 Ar
73 48 58 1
74 49 53 1
75 50 54 1
76 50 59 Ar
77 51 54 1
78 52 54 1
79 53 54 1
80 59 60 Ar
81 59 61 Ar
82 60 62 Ar
83 60 63 1
84 61 64 Ar
85 61 65 1
86 62 66 Ar
87 62 67 1
88 64 66 Ar
89 64 68 1
90 66 69 1
