# B(C6F6)3
# Created by GaussView 6.0.16
#

#
#

@<TRIPOS>MOLECULE
Molecule Name
34 36
SMALL
NO_CHARGES


@<TRIPOS>ATOM
1 B1    -0.3313    -0.1038    -0.0000 B
2 C2    -1.1248     1.2501    -0.0012 C
3 C3    -2.2838     1.4305     0.7607 C
4 C4    -0.7134     2.3479    -0.7643 C
5 C5    -2.9926     2.6251     0.7799 C
6 C6    -1.4074     3.5511    -0.7853 C
7 C7    -2.5515     3.6890    -0.0032 C
8 C8     1.2381    -0.0926    -0.0025 C
9 C9     1.9835    -0.9944    -0.7689 C
10 C10     1.9729     0.8199     0.7613 C
11 C11     3.3725    -0.9927    -0.7916 C
12 C12     3.3618     0.8384     0.7792 C
13 C13     4.0633    -0.0720    -0.0074 C
14 C14    -1.1054    -1.4689     0.0038 C
15 C15    -0.6759    -2.5607     0.7654 C
16 C16    -2.2645    -1.6656    -0.7540 C
17 C17    -1.3528    -3.7736     0.7890 C
18 C18    -2.9564    -2.8701    -0.7706 C
19 C19    -2.4976    -3.9276     0.0110 C
20 F20     0.3676     2.2592    -1.5342 F
21 F21    -0.9948     4.5604    -1.5341 F
22 F22    -3.2168     4.8265    -0.0041 F
23 F23    -4.0750     2.7610     1.5277 F
24 F24    -2.7369     0.4454     1.5312 F
25 F25     0.4065    -2.4567     1.5314 F
26 F26    -0.9234    -4.7769     1.5364 F
27 F27    -3.1469    -5.0743     0.0143 F
28 F28    -4.0395    -3.0213    -1.5145 F
29 F29    -2.7342    -0.6870    -1.5229 F
30 F30     1.3662    -1.8852    -1.5402 F
31 F31     4.0408    -1.8513    -1.5437 F
32 F32     5.3811    -0.0624    -0.0097 F
33 F33     4.0201     1.7067     1.5290 F
34 F34     1.3453     1.7016     1.5347 F
@<TRIPOS>BOND
1 1 2 1
2 1 8 1
3 1 14 1
4 2 3 Ar
5 2 4 Ar
6 3 5 Ar
7 3 24 1
8 4 6 Ar
9 4 20 1
10 5 7 Ar
11 5 23 1
12 6 7 Ar
13 6 21 1
14 7 22 1
15 8 9 Ar
16 8 10 Ar
17 9 11 Ar
18 9 30 1
19 10 12 Ar
20 10 34 1
21 11 13 Ar
22 11 31 1
23 12 13 Ar
24 12 33 1
25 13 32 1
26 14 15 Ar
27 14 16 Ar
28 15 17 Ar
29 15 25 1
30 16 18 Ar
31 16 29 1
32 17 19 Ar
33 17 26 1
34 18 19 Ar
35 18 28 1
36 19 27 1
