# BPh3
# Created by GaussView 6.0.16
#

#
#

@<TRIPOS>MOLECULE
Molecule Name
34 36
SMALL
NO_CHARGES


@<TRIPOS>ATOM
1 B1    -0.3294    -0.1036     0.0002 B
2 C2    -1.1143     1.2560    -0.0075 C
3 C3    -2.3511     1.3898     0.6511 C
4 C4    -0.6084     2.3880    -0.6737 C
5 C5    -3.0437     2.5977     0.6573 C
6 H6    -2.7710     0.5309     1.1781 H
7 C7    -1.3081     3.5917    -0.6946 C
8 H8     0.3481     2.3175    -1.1952 H
9 C9    -2.5252     3.6997    -0.0223 C
10 H10    -3.9935     2.6799     1.1880 H
11 H11    -0.9015     4.4504    -1.2309 H
12 H12    -3.0710     4.6448    -0.0280 H
13 C13     1.2405    -0.1038     0.0012 C
14 C14     1.9716    -1.1113    -0.6558 C
15 C15     1.9711     0.9036     0.6590 C
16 C16     3.3640    -1.1073    -0.6686 C
17 H17     1.4354    -1.9069    -1.1766 H
18 C18     3.3634     0.8993     0.6734 C
19 H19     1.4344     1.6993     1.1792 H
20 C20     4.0623    -0.1040     0.0028 C
21 H21     3.9074    -1.8914    -1.1980 H
22 H22     3.9063     1.6833     1.2034 H
23 H23     5.1537    -0.1041     0.0034 H
24 C24    -1.1146    -1.4632     0.0068 C
25 C25    -0.6098    -2.5953     0.6735 C
26 C26    -2.3505    -1.5966    -0.6535 C
27 C27    -1.3098    -3.7988     0.6934 C
28 H28     0.3460    -2.5250     1.1963 H
29 C29    -3.0434    -2.8044    -0.6607 C
30 H30    -2.7696    -0.7376    -1.1811 H
31 C31    -2.5260    -3.9065     0.0195 C
32 H32    -0.9041    -4.6576     1.2302 H
33 H33    -3.9925    -2.8863    -1.1926 H
34 H34    -3.0720    -4.8515     0.0245 H
@<TRIPOS>BOND
1 1 2 1
2 1 13 1
3 1 24 1
4 2 3 Ar
5 2 4 Ar
6 3 5 Ar
7 3 6 1
8 4 7 Ar
9 4 8 1
10 5 9 Ar
11 5 10 1
12 7 9 Ar
13 7 11 1
14 9 12 1
15 13 14 Ar
16 13 15 Ar
17 14 16 Ar
18 14 17 1
19 15 18 Ar
20 15 19 1
21 16 20 Ar
22 16 21 1
23 18 20 Ar
24 18 22 1
25 20 23 1
26 24 25 Ar
27 24 26 Ar
28 25 27 Ar
29 25 28 1
30 26 29 Ar
31 26 30 1
32 27 31 Ar
33 27 32 1
34 29 31 Ar
35 29 33 1
36 31 34 1
