# Oxodichloro
# Created by GaussView 6.0.16
#

#
#

@<TRIPOS>MOLECULE
Molecule Name
40 42
SMALL
NO_CHARGES


@<TRIPOS>ATOM
1 C1     4.2269     9.2102     9.3473 C
2 C2     4.3715    10.4724     9.9171 C
3 C3     4.7293    10.5876    11.2575 C
4 H4     4.8531    11.5779    11.7014 H
5 C5     4.9428     9.4444    12.0269 C
6 H6     5.2313     9.5361    13.0760 H
7 C7     4.8009     8.1835    11.4482 C
8 H8     4.9833     7.2848    12.0416 H
9 C9     4.4431     8.0646    10.1083 C
10 C10     1.5772     8.9935     8.9514 C
11 H11     1.7929     8.1519     9.6269 H
12 H12     0.5317     8.9291     8.6275 H
13 H13     1.7162     9.9143     9.5377 H
14 C14     2.5021     8.9730     7.7577 C
15 C15     1.8952     8.8313     6.5179 C
16 H16     0.8100     8.7600     6.5236 H
17 C17     2.5071     8.7401     5.2576 C
18 C18     1.5876     8.5521     4.0755 C
19 H19     1.8256     9.2714     3.2778 H
20 H20     0.5406     8.6787     4.3768 H
21 H21     1.7092     7.5454     3.6469 H
22 C22     4.2854     8.7079     3.7146 C
23 C23     4.6508     9.8640     3.0274 C
24 C24     5.0973     9.7742     1.7101 C
25 H25     5.3851    10.6820     1.1752 H
26 C26     5.1816     8.5339     1.0809 C
27 H27     5.5394     8.4644     0.0515 H
28 C28     4.8206     7.3791     1.7758 C
29 H29     4.8997     6.4022     1.2936 H
30 C30     4.3739     7.4636     3.0906 C
31 N31     3.8195     8.8146     5.0732 N
32 N32     3.8348     9.0946     7.9604 N
33 O33     5.3310    10.9630     6.1250 O
34 Cl34     6.5935     7.8007     5.4156 Cl
35 Cl35     6.9177     9.1467     8.1671 Cl
36 Re36     5.2435     9.3545     6.5097 Re
37 H37     4.5951    10.8296     3.5330 H
38 H38     4.1140     6.5645     3.6518 H
39 H39     4.3524     7.0839     9.6368 H
40 H40     4.2260    11.3590     9.2964 H
@<TRIPOS>BOND
1 1 2 Ar
2 1 9 Ar
3 1 32 1
4 2 3 Ar
5 2 40 1
6 3 4 1
7 3 5 Ar
8 5 6 1
9 5 7 Ar
10 7 8 1
11 7 9 Ar
12 9 39 1
13 10 11 1
14 10 12 1
15 10 13 1
16 10 14 1
17 14 15 Ar
18 14 32 Ar
19 15 16 1
20 15 17 Ar
21 17 18 1
22 17 31 Ar
23 18 19 1
24 18 20 1
25 18 21 1
26 22 23 Ar
27 22 30 Ar
28 22 31 1
29 23 24 Ar
30 23 37 1
31 24 25 1
32 24 26 Ar
33 26 27 1
34 26 28 Ar
35 28 29 1
36 28 30 Ar
37 30 38 1
38 31 36 1
39 32 36 1
40 33 36 1
41 34 36 1
42 35 36 1
