# oxodhf
# Created by GaussView 6.0.16
#

#
#

@<TRIPOS>MOLECULE
Molecule Name
58 63
SMALL
NO_CHARGES


@<TRIPOS>ATOM
1 C1     7.5958     2.4497     3.3134 C
2 C2     7.0167     3.5484     3.9516 C
3 C3     5.9175     3.3705     4.7896 C
4 H4     5.4764     4.2338     5.2934 H
5 C5     5.3878     2.0971     4.9912 C
6 H6     4.5296     1.9576     5.6519 H
7 C7     5.9681     1.0001     4.3530 C
8 H8     5.5636    -0.0023     4.5109 H
9 C9     7.0681     1.1729     3.5173 C
10 C10     7.2095     3.3679     0.7419 C
11 H11     6.5745     2.4818     0.8949 H
12 H12     7.2300     3.6154    -0.3267 H
13 H13     6.7341     4.2010     1.2833 H
14 C14     8.6055     3.1200     1.2609 C
15 C15     9.6713     3.4311     0.4099 C
16 H16     9.4029     3.7981    -0.5793 H
17 C17    11.0453     3.3636     0.6898 C
18 C18    12.0039     3.8457    -0.3713 C
19 H19    12.4984     4.7769    -0.0523 H
20 H20    11.4792     4.0366    -1.3156 H
21 H21    12.7978     3.1025    -0.5423 H
22 C22    12.9388     2.9773     2.0961 C
23 C23    13.7152     1.8174     2.0449 C
24 C24    15.0584     1.8621     2.4102 C
25 H25    15.6558     0.9482     2.3755 H
26 C26    15.6348     3.0604     2.8328 C
27 H27    16.6827     3.0892     3.1388 H
28 C28    14.8610     4.2188     2.8769 C
29 H29    15.2983     5.1573     3.2238 H
30 C30    13.5212     4.1814     2.4979 C
31 C31    11.5167     2.9446     4.7384 C
32 H32    11.7849     3.9656     4.4460 H
33 C33    10.1675     2.6163     5.2241 C
34 H34     9.3749     3.3595     5.3810 H
35 C35    10.3826     1.5810     6.2754 C
36 H36     9.5624     1.0796     6.7929 H
37 C37    11.6857     1.3308     6.4688 C
38 H38    12.0948     0.5889     7.1574 H
39 C39    12.5629     2.1806     5.5624 C
40 H40    13.1694     1.5200     4.9147 H
41 C41    13.5321     3.0668     6.2959 C
42 C42    13.3620     4.3325     6.7356 C
43 H43    12.4529     4.9263     6.6285 H
44 C44    14.5946     4.7941     7.3834 C
45 H45    14.7283     5.7814     7.8296 H
46 C46    15.5205     3.8146     7.3355 C
47 H47    16.5347     3.8556     7.7344 H
48 C48    14.9294     2.6246     6.6376 C
49 H49    14.9309     1.7199     7.2753 H
50 H50    15.4846     2.3568     5.7181 H
51 O51    10.6561     0.1714     3.1174 O
52 Re52    10.4891     1.8458     3.2661 Re
53 N53    11.5307     2.9031     1.8411 N
54 N54     8.7598     2.6210     2.4957 N
55 H55     7.5445     0.3178     3.0332 H
56 H56     7.4469     4.5407     3.7988 H
57 H57    12.9046     5.0810     2.5502 H
58 H58    13.2456     0.8762     1.7524 H
@<TRIPOS>BOND
1 1 2 Ar
2 1 9 Ar
3 1 54 1
4 2 3 Ar
5 2 56 1
6 3 4 1
7 3 5 Ar
8 5 6 1
9 5 7 Ar
10 7 8 1
11 7 9 Ar
12 9 55 1
13 10 11 1
14 10 12 1
15 10 13 1
16 10 14 1
17 14 15 Ar
18 14 54 Ar
19 15 16 1
20 15 17 Ar
21 17 18 1
22 17 53 Ar
23 18 19 1
24 18 20 1
25 18 21 1
26 22 23 Ar
27 22 30 Ar
28 22 53 1
29 23 24 Ar
30 23 58 1
31 24 25 1
32 24 26 Ar
33 26 27 1
34 26 28 Ar
35 28 29 1
36 28 30 Ar
37 30 57 1
38 31 32 1
39 31 33 1
40 31 39 1
41 31 52 1
42 33 34 1
43 33 35 1
44 33 52 1
45 35 36 1
46 35 37 2
47 37 38 1
48 37 39 1
49 39 40 1
50 39 41 1
51 41 42 2
52 41 48 1
53 42 43 1
54 42 44 1
55 44 45 1
56 44 46 2
57 46 47 1
58 46 48 1
59 48 49 1
60 48 50 1
61 51 52 1
62 52 53 1
63 52 54 1
