# oxoboranefluoro-TS
# Created by GaussView 6.0.16
#

#
#

@<TRIPOS>MOLECULE
Molecule Name
84 89
SMALL
NO_CHARGES


@<TRIPOS>ATOM
1 C1    24.5479    -7.8460     4.4568 C
2 C2    25.4336    -7.0918     3.6868 C
3 C3    26.6734    -6.6577     4.1394 C
4 C4    27.0799    -6.9927     5.4256 C
5 C5    26.2427    -7.7608     6.2240 C
6 C6    25.0061    -8.1716     5.7358 C
7 C7    23.0593    -8.9167     2.4050 C
8 C8    23.2008   -10.3058     2.3290 C
9 C9    23.1363   -11.0210     1.1391 C
10 C10    22.9450   -10.3376    -0.0560 C
11 C11    22.8382    -8.9531    -0.0347 C
12 C12    22.9094    -8.2732     1.1790 C
13 C13    21.8637    -6.5252     3.9612 C
14 C14    20.8398    -6.6008     3.0060 C
15 C15    20.4487    -5.5630     2.1796 C
16 C16    21.1662    -4.3714     2.2332 C
17 C17    22.2462    -4.2545     3.1017 C
18 C18    22.5703    -5.3187     3.9348 C
19 C19    20.1463   -10.5973     5.9343 C
20 C20    21.0342   -11.5503     5.4357 C
21 C21    20.5777   -12.5169     4.5439 C
22 H22    21.2804   -13.2473     4.1379 H
23 C23    19.2387   -12.5393     4.1533 C
24 H24    18.8877   -13.2939     3.4463 H
25 C25    18.3519   -11.5903     4.6613 C
26 H26    17.3017   -11.6027     4.3608 H
27 C27    18.8041   -10.6178     5.5501 C
28 C28    20.6374    -9.7168     8.0864 C
29 C29    21.0613    -8.7053     8.9724 C
30 H30    20.9785    -8.9367    10.0323 H
31 C31    21.5988    -7.4653     8.6581 C
32 C32    22.4463    -5.7085     7.3158 C
33 C33    23.8047    -5.5865     7.6066 C
34 C34    24.4227    -4.3409     7.5455 C
35 H35    25.4883    -4.2552     7.7678 H
36 C36    23.6864    -3.2111     7.1929 C
37 H37    24.1731    -2.2358     7.1327 H
38 C38    22.3278    -3.3342     6.9013 C
39 H39    21.7474    -2.4547     6.6155 H
40 C40    21.7074    -4.5789     6.9627 C
41 B41    23.1045    -8.3130     3.9104 B
42 N42    19.5054    -7.1556     5.6204 N
43 N43    20.6158    -9.5455     6.7833 N
44 N44    21.8067    -6.9904     7.4060 N
45 O45    22.2891    -8.9916     4.8095 O
46 Re46    21.0926    -7.8264     5.7046 Re
47 H47    18.1250    -9.8600     5.9457 H
48 H48    22.0844   -11.4982     5.7204 H
49 H49    24.3700    -6.4753     7.8890 H
50 H50    20.6489    -4.6919     6.7229 H
51 C51    18.2190    -6.8057     5.2703 C
52 C52    17.6177    -5.7076     5.9040 C
53 C53    17.5073    -7.5292     4.3009 C
54 C54    16.3242    -5.3314     5.5601 C
55 H55    18.1806    -5.1617     6.6632 H
56 C56    16.2108    -7.1485     3.9716 C
57 H57    17.9843    -8.3795     3.8145 H
58 C58    15.6172    -6.0503     4.5949 C
59 H59    15.8616    -4.4728     6.0517 H
60 H60    15.6613    -7.7112     3.2141 H
61 H61    14.6015    -5.7522     4.3267 H
62 C62    21.9676    -6.5912     9.8357 C
63 H63    23.0588    -6.5452     9.9677 H
64 H64    21.6168    -5.5595     9.6867 H
65 H65    21.5266    -6.9904    10.7565 H
66 C66    20.1834   -11.0289     8.6713 C
67 H67    20.2366   -11.0137     9.7663 H
68 H68    19.1495   -11.2498     8.3631 H
69 H69    20.8129   -11.8501     8.2947 H
70 F70    20.1742    -7.7562     2.8586 F
71 F71    19.4440    -5.6969     1.3248 F
72 F72    20.8420    -3.3673     1.4411 F
73 F73    22.9501    -3.1304     3.1266 F
74 F74    23.6284    -5.1337     4.7112 F
75 F75    22.8128    -6.9459     1.0991 F
76 F76    22.6711    -8.2864    -1.1694 F
77 F77    22.8806   -10.9977    -1.2019 F
78 F78    23.2686   -12.3423     1.1338 F
79 F79    23.4488   -11.0174     3.4307 F
80 F80    24.2704    -8.8945     6.5820 F
81 F81    25.0864    -6.7074     2.4607 F
82 F82    26.6183    -8.0801     7.4588 F
83 F83    28.2505    -6.5826     5.8867 F
84 F84    27.4592    -5.9198     3.3681 F
@<TRIPOS>BOND
1 1 2 Ar
2 1 6 Ar
3 1 41 1
4 2 3 Ar
5 2 81 1
6 3 4 Ar
7 3 84 1
8 4 5 Ar
9 4 83 1
10 5 6 Ar
11 5 82 1
12 6 80 1
13 7 8 Ar
14 7 12 Ar
15 7 41 1
16 8 9 Ar
17 8 79 1
18 9 10 Ar
19 9 78 1
20 10 11 Ar
21 10 77 1
22 11 12 Ar
23 11 76 1
24 12 75 1
25 13 14 Ar
26 13 18 Ar
27 14 15 2
28 14 70 1
29 15 16 Ar
30 15 71 1
31 16 17 Ar
32 16 72 1
33 17 18 Ar
34 17 73 1
35 18 74 1
36 19 20 Ar
37 19 27 Ar
38 19 43 1
39 20 21 Ar
40 20 48 1
41 21 22 1
42 21 23 Ar
43 23 24 1
44 23 25 Ar
45 25 26 1
46 25 27 Ar
47 27 47 1
48 28 29 Ar
49 28 43 2
50 28 66 1
51 29 30 1
52 29 31 Ar
53 31 44 Ar
54 31 62 1
55 32 33 Ar
56 32 40 Ar
57 32 44 1
58 33 34 Ar
59 33 49 1
60 34 35 1
61 34 36 Ar
62 36 37 1
63 36 38 Ar
64 38 39 1
65 38 40 Ar
66 40 50 1
67 41 45 1
68 42 46 1
69 42 51 Ar
70 43 46 1
71 44 46 1
72 45 46 1
73 51 52 Ar
74 51 53 Ar
75 52 54 Ar
76 52 55 1
77 53 56 Ar
78 53 57 1
79 54 58 Ar
80 54 59 1
81 56 58 Ar
82 56 60 1
83 58 61 1
84 62 63 1
85 62 64 1
86 62 65 1
87 66 67 1
88 66 68 1
89 66 69 1
