# oxoborane-TS
# Created by GaussView 6.0.16
#

#
#

@<TRIPOS>MOLECULE
Molecule Name
84 88
SMALL
NO_CHARGES


@<TRIPOS>ATOM
1 C1    24.3238    -7.9847     4.7020 C
2 C2    25.3165    -7.0967     4.2609 C
3 C3    26.5078    -6.9215     4.9597 C
4 C4    26.7538    -7.6543     6.1218 C
5 C5    25.7969    -8.5623     6.5698 C
6 C6    24.6013    -8.7166     5.8681 C
7 C7    22.9625    -8.6097     2.3748 C
8 C8    22.4639    -9.8542     1.9662 C
9 C9    22.4789   -10.2381     0.6246 C
10 C10    22.9912    -9.3760    -0.3420 C
11 C11    23.4834    -8.1277     0.0431 C
12 C12    23.4687    -7.7559     1.3838 C
13 C13    21.8143    -6.5463     3.9581 C
14 C14    20.8314    -6.6378     2.9455 C
15 C15    20.6066    -5.6239     2.0259 C
16 C16    21.4066    -4.4812     2.0572 C
17 C17    22.4138    -4.3688     3.0125 C
18 C18    22.6017    -5.3834     3.9475 C
19 C19    20.1193   -10.5648     6.1798 C
20 C20    20.9356   -11.5652     5.6487 C
21 C21    20.3729   -12.5830     4.8835 C
22 H22    21.0165   -13.3572     4.4601 H
23 C23    18.9981   -12.6097     4.6466 C
24 H24    18.5623   -13.4059     4.0393 H
25 C25    18.1846   -11.6117     5.1817 C
26 H26    17.1074   -11.6234     5.0003 H
27 C27    18.7431   -10.5900     5.9464 C
28 C28    20.8681    -9.5898     8.2059 C
29 C29    21.4368    -8.5645     8.9901 C
30 H30    21.5104    -8.7702    10.0560 H
31 C31    21.9371    -7.3367     8.5714 C
32 C32    22.5292    -5.5903     7.0870 C
33 C33    23.9157    -5.4417     7.0664 C
34 C34    24.4763    -4.1877     6.8339 C
35 H35    25.5627    -4.0848     6.8049 H
36 C36    23.6571    -3.0802     6.6198 C
37 H37    24.0981    -2.1005     6.4241 H
38 C38    22.2700    -3.2329     6.6404 C
39 H39    21.6208    -2.3739     6.4586 H
40 C40    21.7067    -4.4834     6.8750 C
41 B41    22.9297    -8.2575     3.9353 B
42 N42    19.4591    -7.1571     5.6383 N
43 N43    20.6884    -9.4769     6.9082 N
44 N44    21.9407    -6.8812     7.3007 N
45 O45    22.0322    -9.0650     4.6989 O
46 Re46    21.0669    -7.7922     5.6941 Re
47 H47    18.1201    -9.7935     6.3572 H
48 H48    22.0113   -11.5161     5.8164 H
49 H49    24.5512    -6.3175     7.1996 H
50 H50    20.6248    -4.6245     6.8601 H
51 C51    18.1666    -7.0088     5.1854 C
52 C52    17.3544    -6.0029     5.7299 C
53 C53    17.6523    -7.8482     4.1832 C
54 C54    16.0515    -5.8374     5.2724 C
55 H55    17.7660    -5.3584     6.5086 H
56 C56    16.3462    -7.6778     3.7366 C
57 H57    18.2866    -8.6372     3.7743 H
58 C58    15.5425    -6.6730     4.2766 C
59 H59    15.4255    -5.0496     5.6977 H
60 H60    15.9536    -8.3347     2.9573 H
61 H61    14.5186    -6.5401     3.9209 H
62 H62    19.8298    -5.7354     1.2691 H
63 H63    21.2537    -3.6858     1.3254 H
64 H64    23.4021    -5.2740     4.6721 H
65 H65    23.0537    -3.4861     3.0379 H
66 H66    23.8598    -9.4285     6.2338 H
67 H67    25.9802    -9.1522     7.4695 H
68 H68    27.6890    -7.5225     6.6687 H
69 H69    27.2524    -6.2127     4.5939 H
70 H70    25.1538    -6.5157     3.3531 H
71 H71    22.0852   -11.2137     0.3327 H
72 H72    23.0014    -9.6704    -1.3931 H
73 H73    23.8729    -7.4389    -0.7086 H
74 H74    23.8194    -6.7593     1.6585 H
75 H75    22.0458   -10.5273     2.7173 H
76 H76    20.2420    -7.5520     2.8514 H
77 C77    22.5185    -6.4561     9.6543 C
78 H78    23.6107    -6.3761     9.5465 H
79 H79    22.1140    -5.4350     9.5906 H
80 H80    22.2959    -6.8683    10.6453 H
81 C81    20.4559   -10.8607     8.9072 C
82 H82    20.6446   -10.7969     9.9855 H
83 H83    19.3858   -11.0603     8.7406 H
84 H84    21.0092   -11.7206     8.4988 H
@<TRIPOS>BOND
1 1 2 Ar
2 1 6 Ar
3 1 41 1
4 2 3 Ar
5 2 70 1
6 3 4 Ar
7 3 69 1
8 4 5 Ar
9 4 68 1
10 5 6 Ar
11 5 67 1
12 6 66 1
13 7 8 Ar
14 7 12 Ar
15 7 41 1
16 8 9 Ar
17 8 75 1
18 9 10 Ar
19 9 71 1
20 10 11 Ar
21 10 72 1
22 11 12 Ar
23 11 73 1
24 12 74 1
25 13 14 Ar
26 13 18 Ar
27 14 15 Ar
28 14 76 1
29 15 16 Ar
30 15 62 1
31 16 17 Ar
32 16 63 1
33 17 18 Ar
34 17 65 1
35 18 64 1
36 19 20 Ar
37 19 27 Ar
38 19 43 1
39 20 21 Ar
40 20 48 1
41 21 22 1
42 21 23 Ar
43 23 24 1
44 23 25 Ar
45 25 26 1
46 25 27 Ar
47 27 47 1
48 28 29 Ar
49 28 43 2
50 28 81 1
51 29 30 1
52 29 31 Ar
53 31 44 Ar
54 31 77 1
55 32 33 Ar
56 32 40 Ar
57 32 44 1
58 33 34 Ar
59 33 49 1
60 34 35 1
61 34 36 Ar
62 36 37 1
63 36 38 Ar
64 38 39 1
65 38 40 Ar
66 40 50 1
67 41 45 1
68 42 46 1
69 42 51 Ar
70 44 46 1
71 45 46 1
72 51 52 Ar
73 51 53 Ar
74 52 54 Ar
75 52 55 1
76 53 56 Ar
77 53 57 1
78 54 58 Ar
79 54 59 1
80 56 58 Ar
81 56 60 1
82 58 61 1
83 77 78 1
84 77 79 1
85 77 80 1
86 81 82 1
87 81 83 1
88 81 84 1
